* File: COL_DRIVER_ARRAY.pex.netlist
* Created: Sat Jun 27 18:21:20 2026
* Program "Calibre xACT"
* Version "v2019.2_26.18"
* 
.include "COL_DRIVER_ARRAY.pex.netlist.pex"
.subckt COL_DRIVER_ARRAY  VSS VDD WEN WEN_BL16 WEN_BL0 WEN_BL4 WEN_BL20
+ WEN_BLB16 WEN_BLB0 WEN_BLB4 WEN_BLB20 WEN_BL17 WEN_BL1 WEN_BL5 WEN_BL21
+ WEN_BLB17 WEN_BLB1 WEN_BLB5 WEN_BLB21 WEN_BL24 WEN_BL8 WEN_BL12 WEN_BL28
+ WEN_BLB24 WEN_BLB8 WEN_BLB12 WEN_BLB28 WEN_BL25 WEN_BL9 WEN_BL13 WEN_BL29
+ WEN_BLB25 WEN_BLB9 WEN_BLB13 WEN_BLB29 WEN_BL18 WEN_BL2 WEN_BL6 WEN_BL22
+ WEN_BLB18 WEN_BLB2 WEN_BLB6 WEN_BLB22 WEN_BL19 WEN_BL3 WEN_BL7 WEN_BL23
+ WEN_BLB19 WEN_BLB3 WEN_BLB7 WEN_BLB23 WEN_BL26 WEN_BL10 WEN_BL14 WEN_BL30
+ WEN_BLB26 WEN_BLB10 WEN_BLB14 WEN_BLB30 WEN_BL27 WEN_BL11 WEN_BL15 WEN_BL31
+ WEN_BLB27 WEN_BLB11 WEN_BLB15 WEN_BLB31 IN D0 D4 D1 D5 D8 D12 D9 D13 D2 D6 D3
+ D7 D10 D14 D11 D15 VSS_SUB VDD_W2 VDD_W3 VDD_W1 VDD_W0 VDD_W4
* 
* VDD_W4	VDD_W4
* VDD_W0	VDD_W0
* VDD_W1	VDD_W1
* VDD_W3	VDD_W3
* VDD_W2	VDD_W2
* VSS_SUB	VSS_SUB
* D15	D15
* D11	D11
* D14	D14
* D10	D10
* D7	D7
* D3	D3
* D6	D6
* D2	D2
* D13	D13
* D9	D9
* D12	D12
* D8	D8
* D5	D5
* D1	D1
* D4	D4
* D0	D0
* IN	IN
* WEN_BLB31	WEN_BLB31
* WEN_BLB15	WEN_BLB15
* WEN_BLB11	WEN_BLB11
* WEN_BLB27	WEN_BLB27
* WEN_BL31	WEN_BL31
* WEN_BL15	WEN_BL15
* WEN_BL11	WEN_BL11
* WEN_BL27	WEN_BL27
* WEN_BLB30	WEN_BLB30
* WEN_BLB14	WEN_BLB14
* WEN_BLB10	WEN_BLB10
* WEN_BLB26	WEN_BLB26
* WEN_BL30	WEN_BL30
* WEN_BL14	WEN_BL14
* WEN_BL10	WEN_BL10
* WEN_BL26	WEN_BL26
* WEN_BLB23	WEN_BLB23
* WEN_BLB7	WEN_BLB7
* WEN_BLB3	WEN_BLB3
* WEN_BLB19	WEN_BLB19
* WEN_BL23	WEN_BL23
* WEN_BL7	WEN_BL7
* WEN_BL3	WEN_BL3
* WEN_BL19	WEN_BL19
* WEN_BLB22	WEN_BLB22
* WEN_BLB6	WEN_BLB6
* WEN_BLB2	WEN_BLB2
* WEN_BLB18	WEN_BLB18
* WEN_BL22	WEN_BL22
* WEN_BL6	WEN_BL6
* WEN_BL2	WEN_BL2
* WEN_BL18	WEN_BL18
* WEN_BLB29	WEN_BLB29
* WEN_BLB13	WEN_BLB13
* WEN_BLB9	WEN_BLB9
* WEN_BLB25	WEN_BLB25
* WEN_BL29	WEN_BL29
* WEN_BL13	WEN_BL13
* WEN_BL9	WEN_BL9
* WEN_BL25	WEN_BL25
* WEN_BLB28	WEN_BLB28
* WEN_BLB12	WEN_BLB12
* WEN_BLB8	WEN_BLB8
* WEN_BLB24	WEN_BLB24
* WEN_BL28	WEN_BL28
* WEN_BL12	WEN_BL12
* WEN_BL8	WEN_BL8
* WEN_BL24	WEN_BL24
* WEN_BLB21	WEN_BLB21
* WEN_BLB5	WEN_BLB5
* WEN_BLB1	WEN_BLB1
* WEN_BLB17	WEN_BLB17
* WEN_BL21	WEN_BL21
* WEN_BL5	WEN_BL5
* WEN_BL1	WEN_BL1
* WEN_BL17	WEN_BL17
* WEN_BLB20	WEN_BLB20
* WEN_BLB4	WEN_BLB4
* WEN_BLB0	WEN_BLB0
* WEN_BLB16	WEN_BLB16
* WEN_BL20	WEN_BL20
* WEN_BL4	WEN_BL4
* WEN_BL0	WEN_BL0
* WEN_BL16	WEN_BL16
* WEN	WEN
* VDD	VDD
* VSS	VSS
mXinv_en1.Mn N_WEN_B0_Xinv_en1.Mn_d N_WEN_Xinv_en1.Mn_g N_VSS_Xinv_en1.Mn_s
+ VSS_SUB NMOS_LVT L=2e-08 W=8.1e-08 NFIN=3
mXinv_en1.Mp N_WEN_B0_Xinv_en1.Mp_d N_WEN_Xinv_en1.Mp_g N_VDD_Xinv_en1.Mp_s
+ VDD_W1 PMOS_LVT L=2e-08 W=8.1e-08 NFIN=3
mX_slice0.Xand1.Mn1 N_X_SLICE0.XAND1.N1_X_slice0.Xand1.Mn1_d
+ N_WEN_B0_X_slice0.Xand1.Mn1_g N_VSS_X_slice0.Xand1.Mn1_s VSS_SUB NMOS_LVT
+ L=2e-08 W=8.1e-08 NFIN=3
mX_slice0.Xand1.Mn2 N_X_SLICE0.XAND1.OUT_B_X_slice0.Xand1.Mn2_d
+ N_A0_X_slice0.Xand1.Mn2_g N_X_SLICE0.XAND1.N1_X_slice0.Xand1.Mn2_s VSS_SUB
+ NMOS_LVT L=2e-08 W=8.1e-08 NFIN=3
mX_slice0.Xand1.Mp1 N_X_SLICE0.XAND1.OUT_B_X_slice0.Xand1.Mp1_d
+ N_WEN_B0_X_slice0.Xand1.Mp1_g N_VDD_X_slice0.Xand1.Mp1_s VDD_W0 PMOS_LVT
+ L=2e-08 W=2.7e-08 NFIN=1
mX_slice0.Xand1.Mp2 N_X_SLICE0.XAND1.OUT_B_X_slice0.Xand1.Mp2_d
+ N_A0_X_slice0.Xand1.Mp2_g N_VDD_X_slice0.Xand1.Mp2_s VDD_W0 PMOS_LVT L=2e-08
+ W=2.7e-08 NFIN=1
mX_slice0.Xand1.Xinv.Mn N_X_SLICE0.WEN1_X_slice0.Xand1.Xinv.Mn_d
+ N_X_SLICE0.XAND1.OUT_B_X_slice0.Xand1.Xinv.Mn_g N_VSS_X_slice0.Xand1.Xinv.Mn_s
+ VSS_SUB NMOS_LVT L=2e-08 W=8.1e-08 NFIN=3
mX_slice0.Xand1.Xinv.Mp N_X_SLICE0.WEN1_X_slice0.Xand1.Xinv.Mp_d
+ N_X_SLICE0.XAND1.OUT_B_X_slice0.Xand1.Xinv.Mp_g N_VDD_X_slice0.Xand1.Xinv.Mp_s
+ VDD_W0 PMOS_LVT L=2e-08 W=8.1e-08 NFIN=3
mX_slice0.Xand0.Mn1 N_X_SLICE0.XAND0.N1_X_slice0.Xand0.Mn1_d
+ N_WEN_B0_X_slice0.Xand0.Mn1_g N_VSS_X_slice0.Xand0.Mn1_s VSS_SUB NMOS_LVT
+ L=2e-08 W=8.1e-08 NFIN=3
mX_slice0.Xand0.Mn2 N_X_SLICE0.XAND0.OUT_B_X_slice0.Xand0.Mn2_d
+ N_A0_B_X_slice0.Xand0.Mn2_g N_X_SLICE0.XAND0.N1_X_slice0.Xand0.Mn2_s VSS_SUB
+ NMOS_LVT L=2e-08 W=8.1e-08 NFIN=3
mX_slice0.Xand0.Mp1 N_X_SLICE0.XAND0.OUT_B_X_slice0.Xand0.Mp1_d
+ N_WEN_B0_X_slice0.Xand0.Mp1_g N_VDD_X_slice0.Xand0.Mp1_s VDD_W1 PMOS_LVT
+ L=2e-08 W=2.7e-08 NFIN=1
mX_slice0.Xand0.Mp2 N_X_SLICE0.XAND0.OUT_B_X_slice0.Xand0.Mp2_d
+ N_A0_B_X_slice0.Xand0.Mp2_g N_VDD_X_slice0.Xand0.Mp2_s VDD_W1 PMOS_LVT L=2e-08
+ W=2.7e-08 NFIN=1
mX_slice0.Xand0.Xinv.Mn N_X_SLICE0.WEN0_X_slice0.Xand0.Xinv.Mn_d
+ N_X_SLICE0.XAND0.OUT_B_X_slice0.Xand0.Xinv.Mn_g N_VSS_X_slice0.Xand0.Xinv.Mn_s
+ VSS_SUB NMOS_LVT L=2e-08 W=8.1e-08 NFIN=3
mX_slice0.Xand0.Xinv.Mp N_X_SLICE0.WEN0_X_slice0.Xand0.Xinv.Mp_d
+ N_X_SLICE0.XAND0.OUT_B_X_slice0.Xand0.Xinv.Mp_g N_VDD_X_slice0.Xand0.Xinv.Mp_s
+ VDD_W1 PMOS_LVT L=2e-08 W=8.1e-08 NFIN=3
mX_slice0.Xdriver1.Xinv.Mn N_X_SLICE0.XDRIVER1.IN_B_X_slice0.Xdriver1.Xinv.Mn_d
+ N_D0_X_slice0.Xdriver1.Xinv.Mn_g N_VSS_X_slice0.Xdriver1.Xinv.Mn_s VSS_SUB
+ NMOS_LVT L=2e-08 W=8.1e-08 NFIN=3
mX_slice0.Xdriver1.Xinv.Mp N_X_SLICE0.XDRIVER1.IN_B_X_slice0.Xdriver1.Xinv.Mp_d
+ N_D0_X_slice0.Xdriver1.Xinv.Mp_g N_VDD_X_slice0.Xdriver1.Xinv.Mp_s VDD_W0
+ PMOS_LVT L=2e-08 W=8.1e-08 NFIN=3
mX_slice0.Xdriver1.Xand1.Mn2
+ N_X_SLICE0.XDRIVER1.XAND1.N1_X_slice0.Xdriver1.Xand1.Mn2_d
+ N_D0_X_slice0.Xdriver1.Xand1.Mn2_g N_VSS_X_slice0.Xdriver1.Xand1.Mn2_s VSS_SUB
+ NMOS_LVT L=2e-08 W=8.1e-08 NFIN=3
mX_slice0.Xdriver1.Xand1.Mn1
+ N_X_SLICE0.XDRIVER1.XAND1.OUT_B_X_slice0.Xdriver1.Xand1.Mn1_d
+ N_X_SLICE0.WEN1_X_slice0.Xdriver1.Xand1.Mn1_g
+ N_X_SLICE0.XDRIVER1.XAND1.N1_X_slice0.Xdriver1.Xand1.Mn1_s VSS_SUB NMOS_LVT
+ L=2e-08 W=8.1e-08 NFIN=3
mX_slice0.Xdriver1.Xand1.Mp2
+ N_X_SLICE0.XDRIVER1.XAND1.OUT_B_X_slice0.Xdriver1.Xand1.Mp2_d
+ N_D0_X_slice0.Xdriver1.Xand1.Mp2_g N_VDD_X_slice0.Xdriver1.Xand1.Mp2_s VDD_W0
+ PMOS_LVT L=2e-08 W=2.7e-08 NFIN=1
mX_slice0.Xdriver1.Xand1.Mp1
+ N_X_SLICE0.XDRIVER1.XAND1.OUT_B_X_slice0.Xdriver1.Xand1.Mp1_d
+ N_X_SLICE0.WEN1_X_slice0.Xdriver1.Xand1.Mp1_g
+ N_VDD_X_slice0.Xdriver1.Xand1.Mp1_s VDD_W0 PMOS_LVT L=2e-08 W=2.7e-08 NFIN=1
mX_slice0.Xdriver1.Xand1.Xinv.Mn N_WEN_BL16_X_slice0.Xdriver1.Xand1.Xinv.Mn_d
+ N_X_SLICE0.XDRIVER1.XAND1.OUT_B_X_slice0.Xdriver1.Xand1.Xinv.Mn_g
+ N_VSS_X_slice0.Xdriver1.Xand1.Xinv.Mn_s VSS_SUB NMOS_LVT L=2e-08 W=8.1e-08
+ NFIN=3
mX_slice0.Xdriver1.Xand1.Xinv.Mp N_WEN_BL16_X_slice0.Xdriver1.Xand1.Xinv.Mp_d
+ N_X_SLICE0.XDRIVER1.XAND1.OUT_B_X_slice0.Xdriver1.Xand1.Xinv.Mp_g
+ N_VDD_X_slice0.Xdriver1.Xand1.Xinv.Mp_s VDD_W0 PMOS_LVT L=2e-08 W=8.1e-08
+ NFIN=3
mX_slice0.Xdriver1.Xand2.Mn1
+ N_X_SLICE0.XDRIVER1.XAND2.N1_X_slice0.Xdriver1.Xand2.Mn1_d
+ N_X_SLICE0.WEN1_X_slice0.Xdriver1.Xand2.Mn1_g
+ N_VSS_X_slice0.Xdriver1.Xand2.Mn1_s VSS_SUB NMOS_LVT L=2e-08 W=8.1e-08 NFIN=3
mX_slice0.Xdriver1.Xand2.Mn2
+ N_X_SLICE0.XDRIVER1.XAND2.OUT_B_X_slice0.Xdriver1.Xand2.Mn2_d
+ N_X_SLICE0.XDRIVER1.IN_B_X_slice0.Xdriver1.Xand2.Mn2_g
+ N_X_SLICE0.XDRIVER1.XAND2.N1_X_slice0.Xdriver1.Xand2.Mn2_s VSS_SUB NMOS_LVT
+ L=2e-08 W=8.1e-08 NFIN=3
mX_slice0.Xdriver1.Xand2.Mp1
+ N_X_SLICE0.XDRIVER1.XAND2.OUT_B_X_slice0.Xdriver1.Xand2.Mp1_d
+ N_X_SLICE0.WEN1_X_slice0.Xdriver1.Xand2.Mp1_g
+ N_VDD_X_slice0.Xdriver1.Xand2.Mp1_s VDD_W0 PMOS_LVT L=2e-08 W=2.7e-08 NFIN=1
mX_slice0.Xdriver1.Xand2.Mp2
+ N_X_SLICE0.XDRIVER1.XAND2.OUT_B_X_slice0.Xdriver1.Xand2.Mp2_d
+ N_X_SLICE0.XDRIVER1.IN_B_X_slice0.Xdriver1.Xand2.Mp2_g
+ N_VDD_X_slice0.Xdriver1.Xand2.Mp2_s VDD_W0 PMOS_LVT L=2e-08 W=2.7e-08 NFIN=1
mX_slice0.Xdriver1.Xand2.Xinv.Mn N_WEN_BLB16_X_slice0.Xdriver1.Xand2.Xinv.Mn_d
+ N_X_SLICE0.XDRIVER1.XAND2.OUT_B_X_slice0.Xdriver1.Xand2.Xinv.Mn_g
+ N_VSS_X_slice0.Xdriver1.Xand2.Xinv.Mn_s VSS_SUB NMOS_LVT L=2e-08 W=8.1e-08
+ NFIN=3
mX_slice0.Xdriver1.Xand2.Xinv.Mp N_WEN_BLB16_X_slice0.Xdriver1.Xand2.Xinv.Mp_d
+ N_X_SLICE0.XDRIVER1.XAND2.OUT_B_X_slice0.Xdriver1.Xand2.Xinv.Mp_g
+ N_VDD_X_slice0.Xdriver1.Xand2.Xinv.Mp_s VDD_W0 PMOS_LVT L=2e-08 W=8.1e-08
+ NFIN=3
mX_slice0.Xdriver0.Xinv.Mn N_X_SLICE0.XDRIVER0.IN_B_X_slice0.Xdriver0.Xinv.Mn_d
+ N_D0_X_slice0.Xdriver0.Xinv.Mn_g N_VSS_X_slice0.Xdriver0.Xinv.Mn_s VSS_SUB
+ NMOS_LVT L=2e-08 W=8.1e-08 NFIN=3
mX_slice0.Xdriver0.Xinv.Mp N_X_SLICE0.XDRIVER0.IN_B_X_slice0.Xdriver0.Xinv.Mp_d
+ N_D0_X_slice0.Xdriver0.Xinv.Mp_g N_VDD_X_slice0.Xdriver0.Xinv.Mp_s VDD_W1
+ PMOS_LVT L=2e-08 W=8.1e-08 NFIN=3
mX_slice0.Xdriver0.Xand1.Mn2
+ N_X_SLICE0.XDRIVER0.XAND1.N1_X_slice0.Xdriver0.Xand1.Mn2_d
+ N_D0_X_slice0.Xdriver0.Xand1.Mn2_g N_VSS_X_slice0.Xdriver0.Xand1.Mn2_s VSS_SUB
+ NMOS_LVT L=2e-08 W=8.1e-08 NFIN=3
mX_slice0.Xdriver0.Xand1.Mn1
+ N_X_SLICE0.XDRIVER0.XAND1.OUT_B_X_slice0.Xdriver0.Xand1.Mn1_d
+ N_X_SLICE0.WEN0_X_slice0.Xdriver0.Xand1.Mn1_g
+ N_X_SLICE0.XDRIVER0.XAND1.N1_X_slice0.Xdriver0.Xand1.Mn1_s VSS_SUB NMOS_LVT
+ L=2e-08 W=8.1e-08 NFIN=3
mX_slice0.Xdriver0.Xand1.Mp2
+ N_X_SLICE0.XDRIVER0.XAND1.OUT_B_X_slice0.Xdriver0.Xand1.Mp2_d
+ N_D0_X_slice0.Xdriver0.Xand1.Mp2_g N_VDD_X_slice0.Xdriver0.Xand1.Mp2_s VDD_W1
+ PMOS_LVT L=2e-08 W=2.7e-08 NFIN=1
mX_slice0.Xdriver0.Xand1.Mp1
+ N_X_SLICE0.XDRIVER0.XAND1.OUT_B_X_slice0.Xdriver0.Xand1.Mp1_d
+ N_X_SLICE0.WEN0_X_slice0.Xdriver0.Xand1.Mp1_g
+ N_VDD_X_slice0.Xdriver0.Xand1.Mp1_s VDD_W1 PMOS_LVT L=2e-08 W=2.7e-08 NFIN=1
mX_slice0.Xdriver0.Xand1.Xinv.Mn N_WEN_BL0_X_slice0.Xdriver0.Xand1.Xinv.Mn_d
+ N_X_SLICE0.XDRIVER0.XAND1.OUT_B_X_slice0.Xdriver0.Xand1.Xinv.Mn_g
+ N_VSS_X_slice0.Xdriver0.Xand1.Xinv.Mn_s VSS_SUB NMOS_LVT L=2e-08 W=8.1e-08
+ NFIN=3
mX_slice0.Xdriver0.Xand1.Xinv.Mp N_WEN_BL0_X_slice0.Xdriver0.Xand1.Xinv.Mp_d
+ N_X_SLICE0.XDRIVER0.XAND1.OUT_B_X_slice0.Xdriver0.Xand1.Xinv.Mp_g
+ N_VDD_X_slice0.Xdriver0.Xand1.Xinv.Mp_s VDD_W1 PMOS_LVT L=2e-08 W=8.1e-08
+ NFIN=3
mX_slice0.Xdriver0.Xand2.Mn1
+ N_X_SLICE0.XDRIVER0.XAND2.N1_X_slice0.Xdriver0.Xand2.Mn1_d
+ N_X_SLICE0.WEN0_X_slice0.Xdriver0.Xand2.Mn1_g
+ N_VSS_X_slice0.Xdriver0.Xand2.Mn1_s VSS_SUB NMOS_LVT L=2e-08 W=8.1e-08 NFIN=3
mX_slice0.Xdriver0.Xand2.Mn2
+ N_X_SLICE0.XDRIVER0.XAND2.OUT_B_X_slice0.Xdriver0.Xand2.Mn2_d
+ N_X_SLICE0.XDRIVER0.IN_B_X_slice0.Xdriver0.Xand2.Mn2_g
+ N_X_SLICE0.XDRIVER0.XAND2.N1_X_slice0.Xdriver0.Xand2.Mn2_s VSS_SUB NMOS_LVT
+ L=2e-08 W=8.1e-08 NFIN=3
mX_slice0.Xdriver0.Xand2.Mp1
+ N_X_SLICE0.XDRIVER0.XAND2.OUT_B_X_slice0.Xdriver0.Xand2.Mp1_d
+ N_X_SLICE0.WEN0_X_slice0.Xdriver0.Xand2.Mp1_g
+ N_VDD_X_slice0.Xdriver0.Xand2.Mp1_s VDD_W1 PMOS_LVT L=2e-08 W=2.7e-08 NFIN=1
mX_slice0.Xdriver0.Xand2.Mp2
+ N_X_SLICE0.XDRIVER0.XAND2.OUT_B_X_slice0.Xdriver0.Xand2.Mp2_d
+ N_X_SLICE0.XDRIVER0.IN_B_X_slice0.Xdriver0.Xand2.Mp2_g
+ N_VDD_X_slice0.Xdriver0.Xand2.Mp2_s VDD_W1 PMOS_LVT L=2e-08 W=2.7e-08 NFIN=1
mX_slice0.Xdriver0.Xand2.Xinv.Mn N_WEN_BLB0_X_slice0.Xdriver0.Xand2.Xinv.Mn_d
+ N_X_SLICE0.XDRIVER0.XAND2.OUT_B_X_slice0.Xdriver0.Xand2.Xinv.Mn_g
+ N_VSS_X_slice0.Xdriver0.Xand2.Xinv.Mn_s VSS_SUB NMOS_LVT L=2e-08 W=8.1e-08
+ NFIN=3
mX_slice0.Xdriver0.Xand2.Xinv.Mp N_WEN_BLB0_X_slice0.Xdriver0.Xand2.Xinv.Mp_d
+ N_X_SLICE0.XDRIVER0.XAND2.OUT_B_X_slice0.Xdriver0.Xand2.Xinv.Mp_g
+ N_VDD_X_slice0.Xdriver0.Xand2.Xinv.Mp_s VDD_W1 PMOS_LVT L=2e-08 W=8.1e-08
+ NFIN=3
mX_slice1.Xand1.Mn1 N_X_SLICE1.XAND1.N1_X_slice1.Xand1.Mn1_d
+ N_WEN_B0_X_slice1.Xand1.Mn1_g N_VSS_X_slice1.Xand1.Mn1_s VSS_SUB NMOS_LVT
+ L=2e-08 W=8.1e-08 NFIN=3
mX_slice1.Xand1.Mn2 N_X_SLICE1.XAND1.OUT_B_X_slice1.Xand1.Mn2_d
+ N_A0_X_slice1.Xand1.Mn2_g N_X_SLICE1.XAND1.N1_X_slice1.Xand1.Mn2_s VSS_SUB
+ NMOS_LVT L=2e-08 W=8.1e-08 NFIN=3
mX_slice1.Xand1.Mp1 N_X_SLICE1.XAND1.OUT_B_X_slice1.Xand1.Mp1_d
+ N_WEN_B0_X_slice1.Xand1.Mp1_g N_VDD_X_slice1.Xand1.Mp1_s VDD_W0 PMOS_LVT
+ L=2e-08 W=2.7e-08 NFIN=1
mX_slice1.Xand1.Mp2 N_X_SLICE1.XAND1.OUT_B_X_slice1.Xand1.Mp2_d
+ N_A0_X_slice1.Xand1.Mp2_g N_VDD_X_slice1.Xand1.Mp2_s VDD_W0 PMOS_LVT L=2e-08
+ W=2.7e-08 NFIN=1
mX_slice1.Xand1.Xinv.Mn N_X_SLICE1.WEN1_X_slice1.Xand1.Xinv.Mn_d
+ N_X_SLICE1.XAND1.OUT_B_X_slice1.Xand1.Xinv.Mn_g N_VSS_X_slice1.Xand1.Xinv.Mn_s
+ VSS_SUB NMOS_LVT L=2e-08 W=8.1e-08 NFIN=3
mX_slice1.Xand1.Xinv.Mp N_X_SLICE1.WEN1_X_slice1.Xand1.Xinv.Mp_d
+ N_X_SLICE1.XAND1.OUT_B_X_slice1.Xand1.Xinv.Mp_g N_VDD_X_slice1.Xand1.Xinv.Mp_s
+ VDD_W0 PMOS_LVT L=2e-08 W=8.1e-08 NFIN=3
mX_slice1.Xand0.Mn1 N_X_SLICE1.XAND0.N1_X_slice1.Xand0.Mn1_d
+ N_WEN_B0_X_slice1.Xand0.Mn1_g N_VSS_X_slice1.Xand0.Mn1_s VSS_SUB NMOS_LVT
+ L=2e-08 W=8.1e-08 NFIN=3
mX_slice1.Xand0.Mn2 N_X_SLICE1.XAND0.OUT_B_X_slice1.Xand0.Mn2_d
+ N_A0_B_X_slice1.Xand0.Mn2_g N_X_SLICE1.XAND0.N1_X_slice1.Xand0.Mn2_s VSS_SUB
+ NMOS_LVT L=2e-08 W=8.1e-08 NFIN=3
mX_slice1.Xand0.Mp1 N_X_SLICE1.XAND0.OUT_B_X_slice1.Xand0.Mp1_d
+ N_WEN_B0_X_slice1.Xand0.Mp1_g N_VDD_X_slice1.Xand0.Mp1_s VDD_W1 PMOS_LVT
+ L=2e-08 W=2.7e-08 NFIN=1
mX_slice1.Xand0.Mp2 N_X_SLICE1.XAND0.OUT_B_X_slice1.Xand0.Mp2_d
+ N_A0_B_X_slice1.Xand0.Mp2_g N_VDD_X_slice1.Xand0.Mp2_s VDD_W1 PMOS_LVT L=2e-08
+ W=2.7e-08 NFIN=1
mX_slice1.Xand0.Xinv.Mn N_X_SLICE1.WEN0_X_slice1.Xand0.Xinv.Mn_d
+ N_X_SLICE1.XAND0.OUT_B_X_slice1.Xand0.Xinv.Mn_g N_VSS_X_slice1.Xand0.Xinv.Mn_s
+ VSS_SUB NMOS_LVT L=2e-08 W=8.1e-08 NFIN=3
mX_slice1.Xand0.Xinv.Mp N_X_SLICE1.WEN0_X_slice1.Xand0.Xinv.Mp_d
+ N_X_SLICE1.XAND0.OUT_B_X_slice1.Xand0.Xinv.Mp_g N_VDD_X_slice1.Xand0.Xinv.Mp_s
+ VDD_W1 PMOS_LVT L=2e-08 W=8.1e-08 NFIN=3
mX_slice1.Xdriver1.Xinv.Mn N_X_SLICE1.XDRIVER1.IN_B_X_slice1.Xdriver1.Xinv.Mn_d
+ N_D1_X_slice1.Xdriver1.Xinv.Mn_g N_VSS_X_slice1.Xdriver1.Xinv.Mn_s VSS_SUB
+ NMOS_LVT L=2e-08 W=8.1e-08 NFIN=3
mX_slice1.Xdriver1.Xinv.Mp N_X_SLICE1.XDRIVER1.IN_B_X_slice1.Xdriver1.Xinv.Mp_d
+ N_D1_X_slice1.Xdriver1.Xinv.Mp_g N_VDD_X_slice1.Xdriver1.Xinv.Mp_s VDD_W0
+ PMOS_LVT L=2e-08 W=8.1e-08 NFIN=3
mX_slice1.Xdriver1.Xand1.Mn2
+ N_X_SLICE1.XDRIVER1.XAND1.N1_X_slice1.Xdriver1.Xand1.Mn2_d
+ N_D1_X_slice1.Xdriver1.Xand1.Mn2_g N_VSS_X_slice1.Xdriver1.Xand1.Mn2_s VSS_SUB
+ NMOS_LVT L=2e-08 W=8.1e-08 NFIN=3
mX_slice1.Xdriver1.Xand1.Mn1
+ N_X_SLICE1.XDRIVER1.XAND1.OUT_B_X_slice1.Xdriver1.Xand1.Mn1_d
+ N_X_SLICE1.WEN1_X_slice1.Xdriver1.Xand1.Mn1_g
+ N_X_SLICE1.XDRIVER1.XAND1.N1_X_slice1.Xdriver1.Xand1.Mn1_s VSS_SUB NMOS_LVT
+ L=2e-08 W=8.1e-08 NFIN=3
mX_slice1.Xdriver1.Xand1.Mp2
+ N_X_SLICE1.XDRIVER1.XAND1.OUT_B_X_slice1.Xdriver1.Xand1.Mp2_d
+ N_D1_X_slice1.Xdriver1.Xand1.Mp2_g N_VDD_X_slice1.Xdriver1.Xand1.Mp2_s VDD_W0
+ PMOS_LVT L=2e-08 W=2.7e-08 NFIN=1
mX_slice1.Xdriver1.Xand1.Mp1
+ N_X_SLICE1.XDRIVER1.XAND1.OUT_B_X_slice1.Xdriver1.Xand1.Mp1_d
+ N_X_SLICE1.WEN1_X_slice1.Xdriver1.Xand1.Mp1_g
+ N_VDD_X_slice1.Xdriver1.Xand1.Mp1_s VDD_W0 PMOS_LVT L=2e-08 W=2.7e-08 NFIN=1
mX_slice1.Xdriver1.Xand1.Xinv.Mn N_WEN_BL17_X_slice1.Xdriver1.Xand1.Xinv.Mn_d
+ N_X_SLICE1.XDRIVER1.XAND1.OUT_B_X_slice1.Xdriver1.Xand1.Xinv.Mn_g
+ N_VSS_X_slice1.Xdriver1.Xand1.Xinv.Mn_s VSS_SUB NMOS_LVT L=2e-08 W=8.1e-08
+ NFIN=3
mX_slice1.Xdriver1.Xand1.Xinv.Mp N_WEN_BL17_X_slice1.Xdriver1.Xand1.Xinv.Mp_d
+ N_X_SLICE1.XDRIVER1.XAND1.OUT_B_X_slice1.Xdriver1.Xand1.Xinv.Mp_g
+ N_VDD_X_slice1.Xdriver1.Xand1.Xinv.Mp_s VDD_W0 PMOS_LVT L=2e-08 W=8.1e-08
+ NFIN=3
mX_slice1.Xdriver1.Xand2.Mn1
+ N_X_SLICE1.XDRIVER1.XAND2.N1_X_slice1.Xdriver1.Xand2.Mn1_d
+ N_X_SLICE1.WEN1_X_slice1.Xdriver1.Xand2.Mn1_g
+ N_VSS_X_slice1.Xdriver1.Xand2.Mn1_s VSS_SUB NMOS_LVT L=2e-08 W=8.1e-08 NFIN=3
mX_slice1.Xdriver1.Xand2.Mn2
+ N_X_SLICE1.XDRIVER1.XAND2.OUT_B_X_slice1.Xdriver1.Xand2.Mn2_d
+ N_X_SLICE1.XDRIVER1.IN_B_X_slice1.Xdriver1.Xand2.Mn2_g
+ N_X_SLICE1.XDRIVER1.XAND2.N1_X_slice1.Xdriver1.Xand2.Mn2_s VSS_SUB NMOS_LVT
+ L=2e-08 W=8.1e-08 NFIN=3
mX_slice1.Xdriver1.Xand2.Mp1
+ N_X_SLICE1.XDRIVER1.XAND2.OUT_B_X_slice1.Xdriver1.Xand2.Mp1_d
+ N_X_SLICE1.WEN1_X_slice1.Xdriver1.Xand2.Mp1_g
+ N_VDD_X_slice1.Xdriver1.Xand2.Mp1_s VDD_W0 PMOS_LVT L=2e-08 W=2.7e-08 NFIN=1
mX_slice1.Xdriver1.Xand2.Mp2
+ N_X_SLICE1.XDRIVER1.XAND2.OUT_B_X_slice1.Xdriver1.Xand2.Mp2_d
+ N_X_SLICE1.XDRIVER1.IN_B_X_slice1.Xdriver1.Xand2.Mp2_g
+ N_VDD_X_slice1.Xdriver1.Xand2.Mp2_s VDD_W0 PMOS_LVT L=2e-08 W=2.7e-08 NFIN=1
mX_slice1.Xdriver1.Xand2.Xinv.Mn N_WEN_BLB17_X_slice1.Xdriver1.Xand2.Xinv.Mn_d
+ N_X_SLICE1.XDRIVER1.XAND2.OUT_B_X_slice1.Xdriver1.Xand2.Xinv.Mn_g
+ N_VSS_X_slice1.Xdriver1.Xand2.Xinv.Mn_s VSS_SUB NMOS_LVT L=2e-08 W=8.1e-08
+ NFIN=3
mX_slice1.Xdriver1.Xand2.Xinv.Mp N_WEN_BLB17_X_slice1.Xdriver1.Xand2.Xinv.Mp_d
+ N_X_SLICE1.XDRIVER1.XAND2.OUT_B_X_slice1.Xdriver1.Xand2.Xinv.Mp_g
+ N_VDD_X_slice1.Xdriver1.Xand2.Xinv.Mp_s VDD_W0 PMOS_LVT L=2e-08 W=8.1e-08
+ NFIN=3
mX_slice1.Xdriver0.Xinv.Mn N_X_SLICE1.XDRIVER0.IN_B_X_slice1.Xdriver0.Xinv.Mn_d
+ N_D1_X_slice1.Xdriver0.Xinv.Mn_g N_VSS_X_slice1.Xdriver0.Xinv.Mn_s VSS_SUB
+ NMOS_LVT L=2e-08 W=8.1e-08 NFIN=3
mX_slice1.Xdriver0.Xinv.Mp N_X_SLICE1.XDRIVER0.IN_B_X_slice1.Xdriver0.Xinv.Mp_d
+ N_D1_X_slice1.Xdriver0.Xinv.Mp_g N_VDD_X_slice1.Xdriver0.Xinv.Mp_s VDD_W1
+ PMOS_LVT L=2e-08 W=8.1e-08 NFIN=3
mX_slice1.Xdriver0.Xand1.Mn2
+ N_X_SLICE1.XDRIVER0.XAND1.N1_X_slice1.Xdriver0.Xand1.Mn2_d
+ N_D1_X_slice1.Xdriver0.Xand1.Mn2_g N_VSS_X_slice1.Xdriver0.Xand1.Mn2_s VSS_SUB
+ NMOS_LVT L=2e-08 W=8.1e-08 NFIN=3
mX_slice1.Xdriver0.Xand1.Mn1
+ N_X_SLICE1.XDRIVER0.XAND1.OUT_B_X_slice1.Xdriver0.Xand1.Mn1_d
+ N_X_SLICE1.WEN0_X_slice1.Xdriver0.Xand1.Mn1_g
+ N_X_SLICE1.XDRIVER0.XAND1.N1_X_slice1.Xdriver0.Xand1.Mn1_s VSS_SUB NMOS_LVT
+ L=2e-08 W=8.1e-08 NFIN=3
mX_slice1.Xdriver0.Xand1.Mp2
+ N_X_SLICE1.XDRIVER0.XAND1.OUT_B_X_slice1.Xdriver0.Xand1.Mp2_d
+ N_D1_X_slice1.Xdriver0.Xand1.Mp2_g N_VDD_X_slice1.Xdriver0.Xand1.Mp2_s VDD_W1
+ PMOS_LVT L=2e-08 W=2.7e-08 NFIN=1
mX_slice1.Xdriver0.Xand1.Mp1
+ N_X_SLICE1.XDRIVER0.XAND1.OUT_B_X_slice1.Xdriver0.Xand1.Mp1_d
+ N_X_SLICE1.WEN0_X_slice1.Xdriver0.Xand1.Mp1_g
+ N_VDD_X_slice1.Xdriver0.Xand1.Mp1_s VDD_W1 PMOS_LVT L=2e-08 W=2.7e-08 NFIN=1
mX_slice1.Xdriver0.Xand1.Xinv.Mn N_WEN_BL1_X_slice1.Xdriver0.Xand1.Xinv.Mn_d
+ N_X_SLICE1.XDRIVER0.XAND1.OUT_B_X_slice1.Xdriver0.Xand1.Xinv.Mn_g
+ N_VSS_X_slice1.Xdriver0.Xand1.Xinv.Mn_s VSS_SUB NMOS_LVT L=2e-08 W=8.1e-08
+ NFIN=3
mX_slice1.Xdriver0.Xand1.Xinv.Mp N_WEN_BL1_X_slice1.Xdriver0.Xand1.Xinv.Mp_d
+ N_X_SLICE1.XDRIVER0.XAND1.OUT_B_X_slice1.Xdriver0.Xand1.Xinv.Mp_g
+ N_VDD_X_slice1.Xdriver0.Xand1.Xinv.Mp_s VDD_W1 PMOS_LVT L=2e-08 W=8.1e-08
+ NFIN=3
mX_slice1.Xdriver0.Xand2.Mn1
+ N_X_SLICE1.XDRIVER0.XAND2.N1_X_slice1.Xdriver0.Xand2.Mn1_d
+ N_X_SLICE1.WEN0_X_slice1.Xdriver0.Xand2.Mn1_g
+ N_VSS_X_slice1.Xdriver0.Xand2.Mn1_s VSS_SUB NMOS_LVT L=2e-08 W=8.1e-08 NFIN=3
mX_slice1.Xdriver0.Xand2.Mn2
+ N_X_SLICE1.XDRIVER0.XAND2.OUT_B_X_slice1.Xdriver0.Xand2.Mn2_d
+ N_X_SLICE1.XDRIVER0.IN_B_X_slice1.Xdriver0.Xand2.Mn2_g
+ N_X_SLICE1.XDRIVER0.XAND2.N1_X_slice1.Xdriver0.Xand2.Mn2_s VSS_SUB NMOS_LVT
+ L=2e-08 W=8.1e-08 NFIN=3
mX_slice1.Xdriver0.Xand2.Mp1
+ N_X_SLICE1.XDRIVER0.XAND2.OUT_B_X_slice1.Xdriver0.Xand2.Mp1_d
+ N_X_SLICE1.WEN0_X_slice1.Xdriver0.Xand2.Mp1_g
+ N_VDD_X_slice1.Xdriver0.Xand2.Mp1_s VDD_W1 PMOS_LVT L=2e-08 W=2.7e-08 NFIN=1
mX_slice1.Xdriver0.Xand2.Mp2
+ N_X_SLICE1.XDRIVER0.XAND2.OUT_B_X_slice1.Xdriver0.Xand2.Mp2_d
+ N_X_SLICE1.XDRIVER0.IN_B_X_slice1.Xdriver0.Xand2.Mp2_g
+ N_VDD_X_slice1.Xdriver0.Xand2.Mp2_s VDD_W1 PMOS_LVT L=2e-08 W=2.7e-08 NFIN=1
mX_slice1.Xdriver0.Xand2.Xinv.Mn N_WEN_BLB1_X_slice1.Xdriver0.Xand2.Xinv.Mn_d
+ N_X_SLICE1.XDRIVER0.XAND2.OUT_B_X_slice1.Xdriver0.Xand2.Xinv.Mn_g
+ N_VSS_X_slice1.Xdriver0.Xand2.Xinv.Mn_s VSS_SUB NMOS_LVT L=2e-08 W=8.1e-08
+ NFIN=3
mX_slice1.Xdriver0.Xand2.Xinv.Mp N_WEN_BLB1_X_slice1.Xdriver0.Xand2.Xinv.Mp_d
+ N_X_SLICE1.XDRIVER0.XAND2.OUT_B_X_slice1.Xdriver0.Xand2.Xinv.Mp_g
+ N_VDD_X_slice1.Xdriver0.Xand2.Xinv.Mp_s VDD_W1 PMOS_LVT L=2e-08 W=8.1e-08
+ NFIN=3
mX_slice4.Xand1.Mn1 N_X_SLICE4.XAND1.N1_X_slice4.Xand1.Mn1_d
+ N_WEN_B0_X_slice4.Xand1.Mn1_g N_VSS_X_slice4.Xand1.Mn1_s VSS_SUB NMOS_LVT
+ L=2e-08 W=8.1e-08 NFIN=3
mX_slice4.Xand1.Mn2 N_X_SLICE4.XAND1.OUT_B_X_slice4.Xand1.Mn2_d
+ N_A1_X_slice4.Xand1.Mn2_g N_X_SLICE4.XAND1.N1_X_slice4.Xand1.Mn2_s VSS_SUB
+ NMOS_LVT L=2e-08 W=8.1e-08 NFIN=3
mX_slice4.Xand1.Mp1 N_X_SLICE4.XAND1.OUT_B_X_slice4.Xand1.Mp1_d
+ N_WEN_B0_X_slice4.Xand1.Mp1_g N_VDD_X_slice4.Xand1.Mp1_s VDD_W2 PMOS_LVT
+ L=2e-08 W=2.7e-08 NFIN=1
mX_slice4.Xand1.Mp2 N_X_SLICE4.XAND1.OUT_B_X_slice4.Xand1.Mp2_d
+ N_A1_X_slice4.Xand1.Mp2_g N_VDD_X_slice4.Xand1.Mp2_s VDD_W2 PMOS_LVT L=2e-08
+ W=2.7e-08 NFIN=1
mX_slice4.Xand1.Xinv.Mn N_X_SLICE4.WEN1_X_slice4.Xand1.Xinv.Mn_d
+ N_X_SLICE4.XAND1.OUT_B_X_slice4.Xand1.Xinv.Mn_g N_VSS_X_slice4.Xand1.Xinv.Mn_s
+ VSS_SUB NMOS_LVT L=2e-08 W=8.1e-08 NFIN=3
mX_slice4.Xand1.Xinv.Mp N_X_SLICE4.WEN1_X_slice4.Xand1.Xinv.Mp_d
+ N_X_SLICE4.XAND1.OUT_B_X_slice4.Xand1.Xinv.Mp_g N_VDD_X_slice4.Xand1.Xinv.Mp_s
+ VDD_W2 PMOS_LVT L=2e-08 W=8.1e-08 NFIN=3
mX_slice4.Xand0.Mn1 N_X_SLICE4.XAND0.N1_X_slice4.Xand0.Mn1_d
+ N_WEN_B0_X_slice4.Xand0.Mn1_g N_VSS_X_slice4.Xand0.Mn1_s VSS_SUB NMOS_LVT
+ L=2e-08 W=8.1e-08 NFIN=3
mX_slice4.Xand0.Mn2 N_X_SLICE4.XAND0.OUT_B_X_slice4.Xand0.Mn2_d
+ N_A1_B_X_slice4.Xand0.Mn2_g N_X_SLICE4.XAND0.N1_X_slice4.Xand0.Mn2_s VSS_SUB
+ NMOS_LVT L=2e-08 W=8.1e-08 NFIN=3
mX_slice4.Xand0.Mp1 N_X_SLICE4.XAND0.OUT_B_X_slice4.Xand0.Mp1_d
+ N_WEN_B0_X_slice4.Xand0.Mp1_g N_VDD_X_slice4.Xand0.Mp1_s VDD_W1 PMOS_LVT
+ L=2e-08 W=2.7e-08 NFIN=1
mX_slice4.Xand0.Mp2 N_X_SLICE4.XAND0.OUT_B_X_slice4.Xand0.Mp2_d
+ N_A1_B_X_slice4.Xand0.Mp2_g N_VDD_X_slice4.Xand0.Mp2_s VDD_W1 PMOS_LVT L=2e-08
+ W=2.7e-08 NFIN=1
mX_slice4.Xand0.Xinv.Mn N_X_SLICE4.WEN0_X_slice4.Xand0.Xinv.Mn_d
+ N_X_SLICE4.XAND0.OUT_B_X_slice4.Xand0.Xinv.Mn_g N_VSS_X_slice4.Xand0.Xinv.Mn_s
+ VSS_SUB NMOS_LVT L=2e-08 W=8.1e-08 NFIN=3
mX_slice4.Xand0.Xinv.Mp N_X_SLICE4.WEN0_X_slice4.Xand0.Xinv.Mp_d
+ N_X_SLICE4.XAND0.OUT_B_X_slice4.Xand0.Xinv.Mp_g N_VDD_X_slice4.Xand0.Xinv.Mp_s
+ VDD_W1 PMOS_LVT L=2e-08 W=8.1e-08 NFIN=3
mX_slice4.Xdriver1.Xinv.Mn N_X_SLICE4.XDRIVER1.IN_B_X_slice4.Xdriver1.Xinv.Mn_d
+ N_D4_X_slice4.Xdriver1.Xinv.Mn_g N_VSS_X_slice4.Xdriver1.Xinv.Mn_s VSS_SUB
+ NMOS_LVT L=2e-08 W=8.1e-08 NFIN=3
mX_slice4.Xdriver1.Xinv.Mp N_X_SLICE4.XDRIVER1.IN_B_X_slice4.Xdriver1.Xinv.Mp_d
+ N_D4_X_slice4.Xdriver1.Xinv.Mp_g N_VDD_X_slice4.Xdriver1.Xinv.Mp_s VDD_W2
+ PMOS_LVT L=2e-08 W=8.1e-08 NFIN=3
mX_slice4.Xdriver1.Xand1.Mn2
+ N_X_SLICE4.XDRIVER1.XAND1.N1_X_slice4.Xdriver1.Xand1.Mn2_d
+ N_D4_X_slice4.Xdriver1.Xand1.Mn2_g N_VSS_X_slice4.Xdriver1.Xand1.Mn2_s VSS_SUB
+ NMOS_LVT L=2e-08 W=8.1e-08 NFIN=3
mX_slice4.Xdriver1.Xand1.Mn1
+ N_X_SLICE4.XDRIVER1.XAND1.OUT_B_X_slice4.Xdriver1.Xand1.Mn1_d
+ N_X_SLICE4.WEN1_X_slice4.Xdriver1.Xand1.Mn1_g
+ N_X_SLICE4.XDRIVER1.XAND1.N1_X_slice4.Xdriver1.Xand1.Mn1_s VSS_SUB NMOS_LVT
+ L=2e-08 W=8.1e-08 NFIN=3
mX_slice4.Xdriver1.Xand1.Mp2
+ N_X_SLICE4.XDRIVER1.XAND1.OUT_B_X_slice4.Xdriver1.Xand1.Mp2_d
+ N_D4_X_slice4.Xdriver1.Xand1.Mp2_g N_VDD_X_slice4.Xdriver1.Xand1.Mp2_s VDD_W2
+ PMOS_LVT L=2e-08 W=2.7e-08 NFIN=1
mX_slice4.Xdriver1.Xand1.Mp1
+ N_X_SLICE4.XDRIVER1.XAND1.OUT_B_X_slice4.Xdriver1.Xand1.Mp1_d
+ N_X_SLICE4.WEN1_X_slice4.Xdriver1.Xand1.Mp1_g
+ N_VDD_X_slice4.Xdriver1.Xand1.Mp1_s VDD_W2 PMOS_LVT L=2e-08 W=2.7e-08 NFIN=1
mX_slice4.Xdriver1.Xand1.Xinv.Mn N_WEN_BL20_X_slice4.Xdriver1.Xand1.Xinv.Mn_d
+ N_X_SLICE4.XDRIVER1.XAND1.OUT_B_X_slice4.Xdriver1.Xand1.Xinv.Mn_g
+ N_VSS_X_slice4.Xdriver1.Xand1.Xinv.Mn_s VSS_SUB NMOS_LVT L=2e-08 W=8.1e-08
+ NFIN=3
mX_slice4.Xdriver1.Xand1.Xinv.Mp N_WEN_BL20_X_slice4.Xdriver1.Xand1.Xinv.Mp_d
+ N_X_SLICE4.XDRIVER1.XAND1.OUT_B_X_slice4.Xdriver1.Xand1.Xinv.Mp_g
+ N_VDD_X_slice4.Xdriver1.Xand1.Xinv.Mp_s VDD_W2 PMOS_LVT L=2e-08 W=8.1e-08
+ NFIN=3
mX_slice4.Xdriver1.Xand2.Mn1
+ N_X_SLICE4.XDRIVER1.XAND2.N1_X_slice4.Xdriver1.Xand2.Mn1_d
+ N_X_SLICE4.WEN1_X_slice4.Xdriver1.Xand2.Mn1_g
+ N_VSS_X_slice4.Xdriver1.Xand2.Mn1_s VSS_SUB NMOS_LVT L=2e-08 W=8.1e-08 NFIN=3
mX_slice4.Xdriver1.Xand2.Mn2
+ N_X_SLICE4.XDRIVER1.XAND2.OUT_B_X_slice4.Xdriver1.Xand2.Mn2_d
+ N_X_SLICE4.XDRIVER1.IN_B_X_slice4.Xdriver1.Xand2.Mn2_g
+ N_X_SLICE4.XDRIVER1.XAND2.N1_X_slice4.Xdriver1.Xand2.Mn2_s VSS_SUB NMOS_LVT
+ L=2e-08 W=8.1e-08 NFIN=3
mX_slice4.Xdriver1.Xand2.Mp1
+ N_X_SLICE4.XDRIVER1.XAND2.OUT_B_X_slice4.Xdriver1.Xand2.Mp1_d
+ N_X_SLICE4.WEN1_X_slice4.Xdriver1.Xand2.Mp1_g
+ N_VDD_X_slice4.Xdriver1.Xand2.Mp1_s VDD_W2 PMOS_LVT L=2e-08 W=2.7e-08 NFIN=1
mX_slice4.Xdriver1.Xand2.Mp2
+ N_X_SLICE4.XDRIVER1.XAND2.OUT_B_X_slice4.Xdriver1.Xand2.Mp2_d
+ N_X_SLICE4.XDRIVER1.IN_B_X_slice4.Xdriver1.Xand2.Mp2_g
+ N_VDD_X_slice4.Xdriver1.Xand2.Mp2_s VDD_W2 PMOS_LVT L=2e-08 W=2.7e-08 NFIN=1
mX_slice4.Xdriver1.Xand2.Xinv.Mn N_WEN_BLB20_X_slice4.Xdriver1.Xand2.Xinv.Mn_d
+ N_X_SLICE4.XDRIVER1.XAND2.OUT_B_X_slice4.Xdriver1.Xand2.Xinv.Mn_g
+ N_VSS_X_slice4.Xdriver1.Xand2.Xinv.Mn_s VSS_SUB NMOS_LVT L=2e-08 W=8.1e-08
+ NFIN=3
mX_slice4.Xdriver1.Xand2.Xinv.Mp N_WEN_BLB20_X_slice4.Xdriver1.Xand2.Xinv.Mp_d
+ N_X_SLICE4.XDRIVER1.XAND2.OUT_B_X_slice4.Xdriver1.Xand2.Xinv.Mp_g
+ N_VDD_X_slice4.Xdriver1.Xand2.Xinv.Mp_s VDD_W2 PMOS_LVT L=2e-08 W=8.1e-08
+ NFIN=3
mX_slice4.Xdriver0.Xinv.Mn N_X_SLICE4.XDRIVER0.IN_B_X_slice4.Xdriver0.Xinv.Mn_d
+ N_D4_X_slice4.Xdriver0.Xinv.Mn_g N_VSS_X_slice4.Xdriver0.Xinv.Mn_s VSS_SUB
+ NMOS_LVT L=2e-08 W=8.1e-08 NFIN=3
mX_slice4.Xdriver0.Xinv.Mp N_X_SLICE4.XDRIVER0.IN_B_X_slice4.Xdriver0.Xinv.Mp_d
+ N_D4_X_slice4.Xdriver0.Xinv.Mp_g N_VDD_X_slice4.Xdriver0.Xinv.Mp_s VDD_W1
+ PMOS_LVT L=2e-08 W=8.1e-08 NFIN=3
mX_slice4.Xdriver0.Xand1.Mn2
+ N_X_SLICE4.XDRIVER0.XAND1.N1_X_slice4.Xdriver0.Xand1.Mn2_d
+ N_D4_X_slice4.Xdriver0.Xand1.Mn2_g N_VSS_X_slice4.Xdriver0.Xand1.Mn2_s VSS_SUB
+ NMOS_LVT L=2e-08 W=8.1e-08 NFIN=3
mX_slice4.Xdriver0.Xand1.Mn1
+ N_X_SLICE4.XDRIVER0.XAND1.OUT_B_X_slice4.Xdriver0.Xand1.Mn1_d
+ N_X_SLICE4.WEN0_X_slice4.Xdriver0.Xand1.Mn1_g
+ N_X_SLICE4.XDRIVER0.XAND1.N1_X_slice4.Xdriver0.Xand1.Mn1_s VSS_SUB NMOS_LVT
+ L=2e-08 W=8.1e-08 NFIN=3
mX_slice4.Xdriver0.Xand1.Mp2
+ N_X_SLICE4.XDRIVER0.XAND1.OUT_B_X_slice4.Xdriver0.Xand1.Mp2_d
+ N_D4_X_slice4.Xdriver0.Xand1.Mp2_g N_VDD_X_slice4.Xdriver0.Xand1.Mp2_s VDD_W1
+ PMOS_LVT L=2e-08 W=2.7e-08 NFIN=1
mX_slice4.Xdriver0.Xand1.Mp1
+ N_X_SLICE4.XDRIVER0.XAND1.OUT_B_X_slice4.Xdriver0.Xand1.Mp1_d
+ N_X_SLICE4.WEN0_X_slice4.Xdriver0.Xand1.Mp1_g
+ N_VDD_X_slice4.Xdriver0.Xand1.Mp1_s VDD_W1 PMOS_LVT L=2e-08 W=2.7e-08 NFIN=1
mX_slice4.Xdriver0.Xand1.Xinv.Mn N_WEN_BL4_X_slice4.Xdriver0.Xand1.Xinv.Mn_d
+ N_X_SLICE4.XDRIVER0.XAND1.OUT_B_X_slice4.Xdriver0.Xand1.Xinv.Mn_g
+ N_VSS_X_slice4.Xdriver0.Xand1.Xinv.Mn_s VSS_SUB NMOS_LVT L=2e-08 W=8.1e-08
+ NFIN=3
mX_slice4.Xdriver0.Xand1.Xinv.Mp N_WEN_BL4_X_slice4.Xdriver0.Xand1.Xinv.Mp_d
+ N_X_SLICE4.XDRIVER0.XAND1.OUT_B_X_slice4.Xdriver0.Xand1.Xinv.Mp_g
+ N_VDD_X_slice4.Xdriver0.Xand1.Xinv.Mp_s VDD_W1 PMOS_LVT L=2e-08 W=8.1e-08
+ NFIN=3
mX_slice4.Xdriver0.Xand2.Mn1
+ N_X_SLICE4.XDRIVER0.XAND2.N1_X_slice4.Xdriver0.Xand2.Mn1_d
+ N_X_SLICE4.WEN0_X_slice4.Xdriver0.Xand2.Mn1_g
+ N_VSS_X_slice4.Xdriver0.Xand2.Mn1_s VSS_SUB NMOS_LVT L=2e-08 W=8.1e-08 NFIN=3
mX_slice4.Xdriver0.Xand2.Mn2
+ N_X_SLICE4.XDRIVER0.XAND2.OUT_B_X_slice4.Xdriver0.Xand2.Mn2_d
+ N_X_SLICE4.XDRIVER0.IN_B_X_slice4.Xdriver0.Xand2.Mn2_g
+ N_X_SLICE4.XDRIVER0.XAND2.N1_X_slice4.Xdriver0.Xand2.Mn2_s VSS_SUB NMOS_LVT
+ L=2e-08 W=8.1e-08 NFIN=3
mX_slice4.Xdriver0.Xand2.Mp1
+ N_X_SLICE4.XDRIVER0.XAND2.OUT_B_X_slice4.Xdriver0.Xand2.Mp1_d
+ N_X_SLICE4.WEN0_X_slice4.Xdriver0.Xand2.Mp1_g
+ N_VDD_X_slice4.Xdriver0.Xand2.Mp1_s VDD_W1 PMOS_LVT L=2e-08 W=2.7e-08 NFIN=1
mX_slice4.Xdriver0.Xand2.Mp2
+ N_X_SLICE4.XDRIVER0.XAND2.OUT_B_X_slice4.Xdriver0.Xand2.Mp2_d
+ N_X_SLICE4.XDRIVER0.IN_B_X_slice4.Xdriver0.Xand2.Mp2_g
+ N_VDD_X_slice4.Xdriver0.Xand2.Mp2_s VDD_W1 PMOS_LVT L=2e-08 W=2.7e-08 NFIN=1
mX_slice4.Xdriver0.Xand2.Xinv.Mn N_WEN_BLB4_X_slice4.Xdriver0.Xand2.Xinv.Mn_d
+ N_X_SLICE4.XDRIVER0.XAND2.OUT_B_X_slice4.Xdriver0.Xand2.Xinv.Mn_g
+ N_VSS_X_slice4.Xdriver0.Xand2.Xinv.Mn_s VSS_SUB NMOS_LVT L=2e-08 W=8.1e-08
+ NFIN=3
mX_slice4.Xdriver0.Xand2.Xinv.Mp N_WEN_BLB4_X_slice4.Xdriver0.Xand2.Xinv.Mp_d
+ N_X_SLICE4.XDRIVER0.XAND2.OUT_B_X_slice4.Xdriver0.Xand2.Xinv.Mp_g
+ N_VDD_X_slice4.Xdriver0.Xand2.Xinv.Mp_s VDD_W1 PMOS_LVT L=2e-08 W=8.1e-08
+ NFIN=3
mX_slice5.Xand1.Mn1 N_X_SLICE5.XAND1.N1_X_slice5.Xand1.Mn1_d
+ N_WEN_B0_X_slice5.Xand1.Mn1_g N_VSS_X_slice5.Xand1.Mn1_s VSS_SUB NMOS_LVT
+ L=2e-08 W=8.1e-08 NFIN=3
mX_slice5.Xand1.Mn2 N_X_SLICE5.XAND1.OUT_B_X_slice5.Xand1.Mn2_d
+ N_A1_X_slice5.Xand1.Mn2_g N_X_SLICE5.XAND1.N1_X_slice5.Xand1.Mn2_s VSS_SUB
+ NMOS_LVT L=2e-08 W=8.1e-08 NFIN=3
mX_slice5.Xand1.Mp1 N_X_SLICE5.XAND1.OUT_B_X_slice5.Xand1.Mp1_d
+ N_WEN_B0_X_slice5.Xand1.Mp1_g N_VDD_X_slice5.Xand1.Mp1_s VDD_W2 PMOS_LVT
+ L=2e-08 W=2.7e-08 NFIN=1
mX_slice5.Xand1.Mp2 N_X_SLICE5.XAND1.OUT_B_X_slice5.Xand1.Mp2_d
+ N_A1_X_slice5.Xand1.Mp2_g N_VDD_X_slice5.Xand1.Mp2_s VDD_W2 PMOS_LVT L=2e-08
+ W=2.7e-08 NFIN=1
mX_slice5.Xand1.Xinv.Mn N_X_SLICE5.WEN1_X_slice5.Xand1.Xinv.Mn_d
+ N_X_SLICE5.XAND1.OUT_B_X_slice5.Xand1.Xinv.Mn_g N_VSS_X_slice5.Xand1.Xinv.Mn_s
+ VSS_SUB NMOS_LVT L=2e-08 W=8.1e-08 NFIN=3
mX_slice5.Xand1.Xinv.Mp N_X_SLICE5.WEN1_X_slice5.Xand1.Xinv.Mp_d
+ N_X_SLICE5.XAND1.OUT_B_X_slice5.Xand1.Xinv.Mp_g N_VDD_X_slice5.Xand1.Xinv.Mp_s
+ VDD_W2 PMOS_LVT L=2e-08 W=8.1e-08 NFIN=3
mX_slice5.Xand0.Mn1 N_X_SLICE5.XAND0.N1_X_slice5.Xand0.Mn1_d
+ N_WEN_B0_X_slice5.Xand0.Mn1_g N_VSS_X_slice5.Xand0.Mn1_s VSS_SUB NMOS_LVT
+ L=2e-08 W=8.1e-08 NFIN=3
mX_slice5.Xand0.Mn2 N_X_SLICE5.XAND0.OUT_B_X_slice5.Xand0.Mn2_d
+ N_A1_B_X_slice5.Xand0.Mn2_g N_X_SLICE5.XAND0.N1_X_slice5.Xand0.Mn2_s VSS_SUB
+ NMOS_LVT L=2e-08 W=8.1e-08 NFIN=3
mX_slice5.Xand0.Mp1 N_X_SLICE5.XAND0.OUT_B_X_slice5.Xand0.Mp1_d
+ N_WEN_B0_X_slice5.Xand0.Mp1_g N_VDD_X_slice5.Xand0.Mp1_s VDD_W1 PMOS_LVT
+ L=2e-08 W=2.7e-08 NFIN=1
mX_slice5.Xand0.Mp2 N_X_SLICE5.XAND0.OUT_B_X_slice5.Xand0.Mp2_d
+ N_A1_B_X_slice5.Xand0.Mp2_g N_VDD_X_slice5.Xand0.Mp2_s VDD_W1 PMOS_LVT L=2e-08
+ W=2.7e-08 NFIN=1
mX_slice5.Xand0.Xinv.Mn N_X_SLICE5.WEN0_X_slice5.Xand0.Xinv.Mn_d
+ N_X_SLICE5.XAND0.OUT_B_X_slice5.Xand0.Xinv.Mn_g N_VSS_X_slice5.Xand0.Xinv.Mn_s
+ VSS_SUB NMOS_LVT L=2e-08 W=8.1e-08 NFIN=3
mX_slice5.Xand0.Xinv.Mp N_X_SLICE5.WEN0_X_slice5.Xand0.Xinv.Mp_d
+ N_X_SLICE5.XAND0.OUT_B_X_slice5.Xand0.Xinv.Mp_g N_VDD_X_slice5.Xand0.Xinv.Mp_s
+ VDD_W1 PMOS_LVT L=2e-08 W=8.1e-08 NFIN=3
mX_slice5.Xdriver1.Xinv.Mn N_X_SLICE5.XDRIVER1.IN_B_X_slice5.Xdriver1.Xinv.Mn_d
+ N_D5_X_slice5.Xdriver1.Xinv.Mn_g N_VSS_X_slice5.Xdriver1.Xinv.Mn_s VSS_SUB