* File: COL_SEL.pex.netlist.pex
* Created: Sat Jun 27 18:28:23 2026
* Program "Calibre xACT"
* Version "v2019.2_26.18"
* Nominal Temperature: 25C
* Circuit Temperature: 27C
* 
.subckt PM_COL_SEL_VSS 1 4 10 16 19 22 28 31 37 46 51 55 58 64 70 73 76 80 136
+ 147 155 158 164 174 177 187 189 195 196 197 203 208 209 216 217 219 220 225
+ 232 240 241 252 259 263 351 352
c282 352 0 0.00193839f
c283 351 0 9.79726e-19
c284 263 0 0.0026179f
c285 259 0 0.00164048f
c286 241 0 0.0021997f
c287 240 0 0.0122785f
c288 232 0 7.98893e-19
c289 225 0 0.00112887f
c290 220 0 6.90414e-19
c291 219 0 0.00102395f
c292 217 0 9.22811e-19
c293 216 0 4.79047e-19
c294 209 0 6.92323e-19
c295 208 0 7.43628e-19
c296 203 0 5.08411e-19
c297 197 0 7.14059e-19
c298 196 0 3.18984e-19
c299 195 0 1.85444e-19
c300 189 0 0.0346184f
c301 187 0 0.0137953f
c302 177 0 0.00211141f
c303 174 0 0.00945325f
c304 164 0 0.0398647f
c305 158 0 0.00191956f
c306 155 0 0.013376f
c307 147 0 0.0189248f
c308 136 0 0.00197639f
c309 80 0 0.0130398f
c310 76 0 0.00203621f
c311 73 0 0.0340145f
c312 70 0 0.00929768f
c313 64 0 0.0339426f
c314 58 0 0.00203953f
c315 55 0 0.0338949f
c316 51 0 0.010528f
c317 46 0 0.0340848f
c318 37 0 0.0340128f
c319 31 0 0.00189078f
c320 28 0 0.0353918f
c321 22 0 0.00202605f
c322 19 0 0.0339272f
c323 16 0 0.00902304f
c324 10 0 0.0345561f
c325 4 0 0.00205375f
c326 1 0 0.0344312f
r327 361 362 5.13017
r328 360 361 1.16595
r329 351 362 12.8254
r330 350 352 6.7625
r331 350 351 19.535
r332 343 344 8.62802
r333 342 343 18.8884
r334 341 342 11.6595
r335 340 341 3.73104
r336 337 338 8.62802
r337 333 337 23.0858
r338 326 327 8.62802
r339 325 326 6.29612
r340 324 325 11.6595
r341 323 324 3.73104
r342 320 321 8.62802
r343 319 320 6.29612
r344 318 319 11.6595
r345 317 318 0.932759
r346 316 317 9.32759
r347 315 316 1.16595
r348 314 315 6.06293
r349 311 314 0.23319
r350 278 279 160.844
r351 269 270 88.5806
r352 268 269 74.5942
r353 264 311 4.19742
r354 263 304 13.5563
r355 263 264 96.0901
r356 263 268 88.5806
r357 263 264 14.4844
r358 259 333 19.535
r359 258 260 6.29612
r360 258 259 19.535
r361 255 256 18.8884
r362 254 255 4.19742
r363 253 254 11.4263
r364 252 260 40.8082
r365 252 256 36.6108
r366 249 250 41.5078
r367 248 249 35.9112
r368 247 248 23.0858
r369 246 247 11.4263
r370 245 360 16.7897
r371 244 253 4.89698
r372 244 250 29.6151
r373 244 245 19.535
r374 241 311 19.535
r375 240 246 17.9556
r376 240 241 19.535
r377 236 237 0.584758
r378 234 352 4.19742
r379 231 232 0.932533
r380 229 230 3.73104
r381 225 232 1.23116
r382 225 230 6.52931
r383 223 224 3.73104
r384 220 228 1.63233
r385 220 222 1.63233
r386 219 231 1.23116
r387 219 224 6.52931
r388 217 237 0.182737
r389 217 218 0.146189
r390 216 220 0.779405
r391 216 218 0.548211
r392 212 213 3.73104
r393 209 234 1.09894
r394 209 211 1.63233
r395 208 236 0.365474
r396 208 209 11.8927
r397 208 213 6.99569
r398 206 207 3.73104
r399 203 205 1.39914
r400 200 201 3.73104
r401 197 199 1.39914
r402 196 234 4.60123
r403 196 207 7.22888
r404 196 201 7.22888
r405 195 203 1.23116
r406 194 197 1.23116
r407 194 195 0.932533
r408 192 304 23.8708
r409 189 192 0.185185
r410 177 180 13.5563
r411 164 272 286.721
r412 164 167 13.5563
r413 158 272 90.9117
r414 158 270 251.755
r415 158 161 13.5563
r416 147 279 125.878
r417 136 139 13.5563
r418 133 278 90.9117
r419 81 187 0.294702
r420 81 185 13.2616
r421 80 344 1.86552
r422 80 81 96.0901
r423 80 187 14.4844
r424 76 185 23.8708
r425 73 76 0.185185
r426 70 177 0.0723956
r427 69 229 5.59655
r428 69 228 1.86552
r429 69 177 96.0901
r430 69 70 14.4844
r431 67 180 23.8708
r432 64 67 0.185185
r433 63 174 0.294702
r434 63 172 13.2616
r435 62 223 5.59655
r436 62 222 1.86552
r437 62 63 96.0901
r438 62 174 14.4844
r439 58 172 23.8708
r440 55 58 0.185185
r441 51 327 1.86552
r442 51 164 96.0901
r443 51 164 14.4844
r444 49 167 23.8708
r445 46 49 0.185185
r446 42 323 5.59655
r447 42 321 1.86552
r448 42 158 96.0901
r449 42 158 14.4844
r450 40 161 23.8708
r451 37 40 0.185185
r452 36 155 0.294702
r453 36 153 13.2616
r454 35 340 5.59655
r455 35 338 1.86552
r456 35 36 96.0901
r457 35 155 14.4844
r458 31 153 23.8708
r459 28 31 0.185185
r460 27 147 0.294702
r461 27 145 13.2616
r462 26 212 5.59655
r463 26 211 1.86552
r464 26 27 96.0901
r465 26 147 14.4844
r466 22 145 23.8708
r467 19 22 0.185185
r468 16 136 0.0723956
r469 15 206 5.59655
r470 15 205 1.86552
r471 15 136 96.0901
r472 15 16 14.4844
r473 13 139 23.8708
r474 10 13 0.185185
r475 9 133 0.294702
r476 9 131 13.2616
r477 8 200 5.59655
r478 8 199 1.86552
r479 8 9 96.0901
r480 8 133 14.4844
r481 4 131 23.8708
r482 1 4 0.185185
.ends

.subckt PM_COL_SEL_VDD 1 10 13 19 28 34 37 40 46 49 55 61 64 67 73 79 128 140
+ 143 149 168 171 181 184 189 192 194 197 200 202 203 204 213 214 219 220 226
+ 228 240 248 249 258 259 264 270 271 276 283 285 288 289 300 306 310 369
c260 369 0 9.74315e-19
c261 310 0 0.001569f
c262 300 0 0.00291065f
c263 289 0 2.96966e-19
c264 288 0 1.72678e-19
c265 285 0 5.29906e-19
c266 283 0 8.1864e-19
c267 276 0 9.11686e-19
c268 271 0 8.48075e-19
c269 270 0 8.7134e-19
c270 264 0 5.61541e-19
c271 259 0 0.00124431f
c272 258 0 7.41468e-19
c273 249 0 0.00106066f
c274 248 0 0.00147215f
c275 240 0 9.80937e-19
c276 228 0 1.57018e-19
c277 226 0 0.0012768f
c278 220 0 9.35285e-19
c279 219 0 0.0017664f
c280 214 0 6.14376e-19
c281 213 0 2.11626e-19
c282 204 0 9.1783e-19
c283 203 0 4.86465e-19
c284 202 0 5.50219e-19
c285 200 0 1.71706e-19
c286 197 0 0.0172551f
c287 192 0 0.00123342f
c288 189 0 0.0159976f
c289 184 0 0.0020974f
c290 181 0 0.00949062f
c291 171 0 0.00181017f
c292 168 0 0.0261569f
c293 149 0 0.00195508f
c294 143 0 0.0275466f
c295 140 0 0.0131731f
c296 128 0 0.00208972f
c297 79 0 0.0093261f
c298 73 0 0.0344006f
c299 67 0 0.00183791f
c300 64 0 0.0344464f
c301 61 0 0.00915847f
c302 55 0 0.0344005f
c303 49 0 0.00200306f
c304 46 0 0.035309f
c305 40 0 0.00198607f
c306 37 0 0.0349886f
c307 34 0 0.0109099f
c308 28 0 0.0341474f
c309 19 0 0.034445f
c310 13 0 0.00188529f
c311 10 0 0.0351372f
c312 1 0 0.0352478f
r313 330 331 125.878
r314 329 330 34.966
r315 325 326 74.5942
r316 324 366 13.2616
r317 324 326 88.5806
r318 321 361 13.2616
r319 321 325 88.5806
r320 316 317 10.2603
r321 315 316 13.7582
r322 314 315 18.8884
r323 313 314 27.5164
r324 312 313 14.2246
r325 311 312 4.19742
r326 310 373 4.4306
r327 309 317 7.22888
r328 309 310 19.535
r329 306 311 4.89698
r330 306 307 8.16164
r331 301 369 4.4306
r332 300 307 5.59655
r333 300 301 19.535
r334 298 369 4.19742
r335 297 298 1.21678
r336 295 296 0.566484
r337 291 373 4.19742
r338 290 295 0.164463
r339 290 293 0.749221
r340 290 291 1.22854
r341 284 285 1.02141
r342 282 283 0.975663
r343 280 281 3.73104
r344 276 283 1.21881
r345 276 281 6.7625
r346 274 275 3.73104
r347 271 297 3.11342
r348 271 279 1.63233
r349 271 273 1.63233
r350 270 282 1.21881
r351 270 275 6.7625
r352 268 269 3.73104
r353 264 285 1.20649
r354 264 269 6.99569
r355 262 263 3.73104
r356 259 296 0.475116
r357 259 267 2.56509
r358 259 261 2.56509
r359 258 284 1.20649
r360 258 263 6.99569
r361 256 257 3.73104
r362 250 251 4.19742
r363 249 255 2.09871
r364 249 250 4.19742
r365 248 293 0.365474
r366 248 257 6.99569
r367 248 251 11.8927
r368 246 247 11.6595
r369 245 246 3.73104
r370 243 244 8.62802
r371 241 289 0.948909
r372 241 243 5.59655
r373 240 297 1.25413
r374 240 247 7.46207
r375 239 240 6.7625
r376 238 239 3.73104
r377 236 237 8.62802
r378 235 236 6.29612
r379 232 235 8.39483
r380 232 324 96.0901
r381 230 288 0.948909
r382 230 232 3.49785
r383 228 289 0.0717647
r384 227 288 0.0717647
r385 227 228 2.65316
r386 223 224 3.73104
r387 220 222 1.39914
r388 219 249 1.40868
r389 219 226 19.1216
r390 219 224 6.52931
r391 217 218 3.73104
r392 214 216 1.86552
r393 213 289 0.948909
r394 213 218 6.99569
r395 211 212 4.19742
r396 210 211 6.06293
r397 206 210 4.4306
r398 206 321 14.4844
r399 206 321 96.0901
r400 204 206 3.73104
r401 203 288 0.948909
r402 203 212 1.63233
r403 202 226 1.23116
r404 201 220 1.23116
r405 201 202 0.932533
r406 200 214 1.20649
r407 199 204 1.20649
r408 199 200 1.02141
r409 197 366 7.95695
r410 194 197 0.555556
r411 192 361 7.95695
r412 189 192 0.555556
r413 184 187 13.5563
r414 171 174 13.5563
r415 168 331 125.878
r416 161 329 90.9117
r417 161 324 251.755
r418 158 159 15.9139
r419 149 152 13.5563
r420 143 337 286.721
r421 143 146 13.5563
r422 128 337 90.9117
r423 128 131 13.5563
r424 79 184 0.0723956
r425 78 268 5.59655
r426 78 267 1.86552
r427 78 184 96.0901
r428 78 79 14.4844
r429 76 187 23.8708
r430 73 76 0.185185
r431 72 181 0.294702
r432 72 179 13.2616
r433 71 262 5.59655
r434 71 261 1.86552
r435 71 72 96.0901
r436 71 181 14.4844
r437 67 179 23.8708
r438 64 67 0.185185
r439 61 171 0.0723956
r440 60 280 5.59655
r441 60 279 1.86552
r442 60 171 96.0901
r443 60 61 14.4844
r444 58 174 23.8708
r445 55 58 0.185185
r446 54 168 0.294702
r447 54 166 13.2616
r448 53 274 5.59655
r449 53 273 1.86552
r450 53 54 96.0901
r451 53 168 14.4844
r452 49 166 23.8708
r453 46 49 0.185185
r454 45 161 0.294702
r455 45 159 13.2616
r456 44 238 5.59655
r457 44 237 1.86552
r458 44 45 96.0901
r459 44 161 14.4844
r460 40 158 7.95695
r461 37 40 0.185185
r462 34 149 0.0723956
r463 33 256 5.59655
r464 33 255 1.86552
r465 33 149 96.0901
r466 33 34 14.4844
r467 31 152 23.8708
r468 28 31 0.185185
r469 24 245 5.59655
r470 24 244 1.86552
r471 24 143 96.0901
r472 24 143 14.4844
r473 22 146 23.8708
r474 19 22 0.185185
r475 18 140 0.294702
r476 18 138 13.2616
r477 17 223 5.59655
r478 17 222 1.86552
r479 17 18 96.0901
r480 17 140 14.4844
r481 13 138 23.8708
r482 10 13 0.185185
r483 6 217 5.59655
r484 6 216 1.86552
r485 6 128 96.0901
r486 6 128 14.4844
r487 4 131 23.8708
r488 1 4 0.185185
.ends

.subckt PM_COL_SEL_WEN 2 5 7 10 13
c26 13 0 0.00203567f
c27 5 0 0.00474679f
c28 2 0 0.0848942f
r29 13 14 19.38
r30 10 13 7.46207
r31 5 14 10.0423
r32 5 7 33.75
r33 2 5 24.1072
.ends

.subckt PM_COL_SEL_IN 2 5 7 10 13
c25 13 0 9.44722e-19
c26 5 0 0.00398149f
c27 2 0 0.0865321f
r28 10 13 3.73104
r29 5 13 19.38
r30 5 7 33.75
r31 2 5 24.1072
.ends

.subckt PM_COL_SEL_QB0 1 4 7 11 14 17 47 49 50 52 54 55 61 62 65 68
c61 68 0 0.00146667f
c62 62 0 0.00170469f
c63 61 0 0.00384531f
c64 55 0 0.0011613f
c65 54 0 5.99643e-19
c66 52 0 6.11019e-19
c67 50 0 0.00220546f
c68 49 0 0.00209474f
c69 47 0 9.58143e-19
c70 17 0 0.00286509f
c71 14 0 0.0265211f
c72 7 0 0.00268901f
c73 4 0 0.0263133f
r74 67 69 13.9914
r75 67 68 19.535
r76 65 69 9.56078
r77 61 65 22.8526
r78 61 62 19.535
r79 59 68 13.0586
r80 58 62 9.56078
r81 54 56 3.26466
r82 54 55 19.535
r83 52 59 1.02627
r84 52 56 6.06293
r85 49 50 19.535
r86 47 58 1.02627
r87 47 49 9.32759
r88 17 55 19.38
r89 14 17 10.6093
r90 11 14 0.277778
r91 7 50 19.38
r92 4 7 10.6093
r93 1 4 0.277778
.ends

.subckt PM_COL_SEL_Q0 1 4 11 14 48 49 52 56 59 64
c62 64 0 0.00129063f
c63 59 0 0.00126078f
c64 56 0 0.00149422f
c65 49 0 8.77756e-19
c66 48 0 0.00606726f
c67 14 0 0.0280167f
c68 4 0 0.0282794f
r69 56 64 19.535
r70 55 56 19.535
r71 52 55 13.525
r72 52 53 45.7052
r73 49 59 19.535
r74 48 53 13.9914
r75 48 49 19.535
r76 17 64 19.38
r77 14 17 10.6093
r78 11 14 0.277778
r79 7 59 19.38
r80 4 7 10.6093
r81 1 4 0.277778
.ends

.subckt PM_COL_SEL_QB4 1 4 7 11 14 17 47 49 50 53 55 56 62 63 66 69
c65 69 0 0.00173425f
c66 63 0 0.00157017f
c67 62 0 0.00558562f
c68 56 0 0.00117183f
c69 55 0 6.12697e-19
c70 53 0 5.76417e-19
c71 50 0 0.00125516f
c72 49 0 0.00185197f
c73 47 0 7.37689e-19
c74 17 0 0.0028983f
c75 14 0 0.0264185f
c76 7 0 0.00267276f
c77 4 0 0.026355f
r78 68 70 13.9914
r79 68 69 19.535
r80 66 70 9.56078
r81 62 66 22.8526
r82 62 63 19.535
r83 60 69 13.0586
r84 59 63 9.56078
r85 55 57 3.26466
r86 55 56 19.535
r87 53 60 1.02627
r88 53 57 6.06293
r89 49 51 3.26466
r90 49 50 19.535
r91 47 59 1.02627
r92 47 51 6.06293
r93 17 56 19.38
r94 14 17 10.6093
r95 11 14 0.277778
r96 7 50 19.38
r97 4 7 10.6093
r98 1 4 0.277778
.ends

.subckt PM_COL_SEL_Q4 1 4 11 14 48 49 52 56 59 64
c52 64 0 0.0019246f
c53 59 0 0.00126678f
c54 56 0 0.0017778f
c55 49 0 0.00105604f
c56 48 0 0.00748272f
c57 14 0 0.0284679f
c58 4 0 0.0286683f
r59 56 64 19.535
r60 55 56 19.535
r61 52 55 13.525
r62 52 53 45.7052
r63 49 59 19.535
r64 48 53 13.9914
r65 48 49 19.535
r66 17 64 19.38
r67 14 17 10.6093
r68 11 14 0.277778
r69 7 59 19.38
r70 4 7 10.6093
r71 1 4 0.277778
.ends

.subckt PM_COL_SEL_QB1 1 4 7 11 14 17 47 49 50 52 54 55 61 62 65 68
c73 68 0 6.89833e-19
c74 62 0 7.13732e-19
c75 61 0 0.00162353f
c76 55 0 0.00123923f
c77 54 0 6.04484e-19
c78 52 0 4.17648e-19
c79 50 0 0.00249588f
c80 49 0 0.00124593f
c81 47 0 7.78548e-19
c82 17 0 0.00309037f
c83 14 0 0.0260378f
c84 7 0 0.00289463f
c85 4 0 0.0260709f
r86 67 69 13.9914
r87 67 68 19.535
r88 65 69 9.56078
r89 61 65 22.8526
r90 61 62 19.535
r91 59 68 13.0586
r92 58 62 9.56078
r93 54 56 3.26466
r94 54 55 19.535
r95 52 59 1.02627
r96 52 56 6.06293
r97 49 50 19.535
r98 47 58 1.02627
r99 47 49 9.32759
r100 17 55 19.38
r101 14 17 10.6093
r102 11 14 0.277778
r103 7 50 19.38
r104 4 7 10.6093
r105 1 4 0.277778
.ends

.subckt PM_COL_SEL_Q1 1 4 11 14 48 49 52 56 59 64
c68 64 0 0.00133341f
c69 59 0 0.00125777f
c70 56 0 0.00146071f
c71 49 0 9.81664e-19
c72 48 0 0.00315983f
c73 14 0 0.0276678f
c74 4 0 0.0278669f
r75 56 64 19.535
r76 55 56 19.535
r77 52 55 13.525
r78 52 53 45.7052
r79 49 59 19.535
r80 48 53 13.9914
r81 48 49 19.535
r82 17 64 19.38
r83 14 17 10.6093
r84 11 14 0.277778
r85 7 59 19.38
r86 4 7 10.6093
r87 1 4 0.277778
.ends

.subckt PM_COL_SEL_QB5 1 4 7 11 14 17 47 49 50 53 55 56 62 63 66 69
c78 69 0 6.82326e-19
c79 63 0 0.00109762f
c80 62 0 0.00150552f
c81 56 0 0.00128524f
c82 55 0 6.52992e-19
c83 53 0 4.10047e-19
c84 50 0 0.00121822f
c85 49 0 0.00165955f
c86 47 0 6.44481e-19
c87 17 0 0.0030776f
c88 14 0 0.0263767f
c89 7 0 0.00292891f
c90 4 0 0.0263767f
r91 68 70 13.9914
r92 68 69 19.535
r93 66 70 9.56078
r94 62 66 22.8526
r95 62 63 19.535
r96 60 69 13.0586
r97 59 63 9.56078
r98 55 57 3.26466
r99 55 56 19.535
r100 53 60 1.02627
r101 53 57 6.06293
r102 49 51 3.26466
r103 49 50 19.535
r104 47 59 1.02627
r105 47 51 6.06293
r106 17 56 19.38
r107 14 17 10.6093
r108 11 14 0.277778
r109 7 50 19.38
r110 4 7 10.6093
r111 1 4 0.277778
.ends

.subckt PM_COL_SEL_Q5 1 4 11 14 48 49 52 56 59 64
c58 64 0 0.00177548f
c59 59 0 0.00126986f
c60 56 0 0.00185557f
c61 49 0 0.0010514f
c62 48 0 0.00408523f
c63 14 0 0.028124f
c64 4 0 0.0281303f
r65 56 64 19.535
r66 55 56 19.535
r67 52 55 13.525
r68 52 53 45.7052
r69 49 59 19.535
r70 48 53 13.9914
r71 48 49 19.535
r72 17 64 19.38
r73 14 17 10.6093
r74 11 14 0.277778
r75 7 59 19.38
r76 4 7 10.6093
r77 1 4 0.277778
.ends

.subckt PM_COL_SEL_QB2 1 4 7 11 14 17 47 49 50 52 54 55 61 62 65 68
c75 68 0 5.61069e-19
c76 62 0 6.06701e-19
c77 61 0 0.00180126f
c78 55 0 0.00119844f
c79 54 0 7.84739e-19
c80 52 0 3.80299e-19
c81 50 0 0.00245134f
c82 49 0 0.0012493f
c83 47 0 8.47238e-19
c84 17 0 0.00313468f
c85 14 0 0.0260336f
c86 7 0 0.0028942f
c87 4 0 0.0260667f
r88 67 69 13.9914
r89 67 68 19.535
r90 65 69 9.56078
r91 61 65 22.8526
r92 61 62 19.535
r93 59 68 13.0586
r94 58 62 9.56078
r95 54 56 3.26466
r96 54 55 19.535
r97 52 59 1.02627
r98 52 56 6.06293
r99 49 50 19.535
r100 47 58 1.02627
r101 47 49 9.32759
r102 17 55 19.38
r103 14 17 10.6093
r104 11 14 0.277778
r105 7 50 19.38
r106 4 7 10.6093
r107 1 4 0.277778
.ends

.subckt PM_COL_SEL_Q2 1 4 11 14 48 49 52 56 59 64
c66 64 0 0.00148076f
c67 59 0 0.00132244f
c68 56 0 0.00150959f
c69 49 0 9.42666e-19
c70 48 0 0.0034232f
c71 14 0 0.0283611f
c72 4 0 0.0284365f
r73 56 64 19.535
r74 55 56 19.535
r75 52 55 13.525
r76 52 53 45.7052
r77 49 59 19.535
r78 48 53 13.9914
r79 48 49 19.535
r80 17 64 19.38
r81 14 17 10.6093
r82 11 14 0.277778
r83 7 59 19.38
r84 4 7 10.6093
r85 1 4 0.277778
.ends

.subckt PM_COL_SEL_QB6 1 4 7 11 14 17 47 49 50 53 55 56 62 63 66 69
c79 69 0 5.71938e-19
c80 63 0 0.00119443f
c81 62 0 0.0018351f
c82 56 0 0.00117884f
c83 55 0 8.34751e-19
c84 53 0 3.64993e-19
c85 50 0 0.00133264f
c86 49 0 0.00130026f
c87 47 0 6.90386e-19
c88 17 0 0.0031076f
c89 14 0 0.0263997f
c90 7 0 0.00293129f
c91 4 0 0.0263997f
r92 68 70 13.9914
r93 68 69 19.535
r94 66 70 9.56078
r95 62 66 22.8526
r96 62 63 19.535
r97 60 69 13.0586
r98 59 63 9.56078
r99 55 57 3.26466
r100 55 56 19.535
r101 53 60 1.02627
r102 53 57 6.06293
r103 49 51 3.26466
r104 49 50 19.535
r105 47 59 1.02627
r106 47 51 6.06293
r107 17 56 19.38
r108 14 17 10.6093
r109 11 14 0.277778
r110 7 50 19.38
r111 4 7 10.6093
r112 1 4 0.277778
.ends

.subckt PM_COL_SEL_Q6 1 4 11 14 48 49 52 56 59 64
c59 64 0 0.00167525f
c60 59 0 0.00160498f
c61 56 0 0.00147074f
c62 49 0 0.00122025f
c63 48 0 0.00420513f
c64 14 0 0.0277938f
c65 4 0 0.0277985f
r66 56 64 19.535
r67 55 56 19.535
r68 52 55 13.525
r69 52 53 45.7052
r70 49 59 19.535
r71 48 53 13.9914
r72 48 49 19.535
r73 17 64 19.38
r74 14 17 10.6093
r75 11 14 0.277778
r76 7 59 19.38
r77 4 7 10.6093
r78 1 4 0.277778
.ends

.subckt PM_COL_SEL_QB3 1 4 7 11 14 17 47 49 50 52 54 55 61 62 65 68
c69 68 0 7.79732e-19
c70 62 0 0.00123097f
c71 61 0 0.00312888f
c72 55 0 0.00136521f
c73 54 0 7.3758e-19
c74 52 0 4.48203e-19
c75 50 0 0.00170825f
c76 49 0 0.00161807f
c77 47 0 8.86188e-19
c78 17 0 0.00254328f
c79 14 0 0.0263828f
c80 7 0 0.00262564f
c81 4 0 0.0259155f
r82 67 69 13.9914
r83 67 68 19.535
r84 65 69 9.56078
r85 61 65 22.8526
r86 61 62 19.535
r87 59 68 13.0586
r88 58 62 9.56078
r89 54 56 3.26466
r90 54 55 19.535
r91 52 59 1.02627
r92 52 56 6.06293
r93 49 50 19.535
r94 47 58 1.02627
r95 47 49 9.32759
r96 17 55 19.38
r97 14 17 10.6093
r98 11 14 0.277778
r99 7 50 19.38
r100 4 7 10.6093
r101 1 4 0.277778
.ends

.subckt PM_COL_SEL_Q3 1 4 11 14 48 49 52 56 59 64
c69 64 0 0.00125465f
c70 59 0 0.00154386f
c71 56 0 0.0010689f
c72 49 0 9.58032e-19
c73 48 0 0.00411873f
c74 14 0 0.0276021f
c75 4 0 0.0280395f
r76 56 64 19.535
r77 55 56 19.535
r78 52 55 13.525
r79 52 53 45.7052
r80 49 59 19.535
r81 48 53 13.9914
r82 48 49 19.535
r83 17 64 19.38
r84 14 17 10.6093
r85 11 14 0.277778
r86 7 59 19.38
r87 4 7 10.6093
r88 1 4 0.277778
.ends

.subckt PM_COL_SEL_QB7 1 4 7 11 14 17 47 49 50 53 55 56 62 66 69 79
c83 79 0 0.00127765f
c84 69 0 6.40993e-19
c85 62 0 0.0025311f
c86 56 0 0.00180767f
c87 55 0 7.22898e-19
c88 53 0 3.83423e-19
c89 50 0 0.00122108f
c90 49 0 8.69599e-19
c91 47 0 6.73071e-19
c92 17 0 0.00259716f
c93 14 0 0.0264879f
c94 7 0 0.00242172f
c95 4 0 0.0263928f
r96 68 70 13.9914
r97 68 69 19.535
r98 66 70 9.56078
r99 63 79 4.89698
r100 62 66 22.8526
r101 62 63 19.535
r102 60 69 13.0586
r103 59 79 4.66379
r104 55 57 3.26466
r105 55 56 19.535
r106 53 60 1.02627
r107 53 57 6.06293
r108 49 51 3.26466
r109 49 50 19.535
r110 47 59 1.02627
r111 47 51 6.06293
r112 17 56 19.38
r113 14 17 10.6093
r114 11 14 0.277778
r115 7 50 19.38
r116 4 7 10.6093
r117 1 4 0.277778
.ends

.subckt PM_COL_SEL_Q7 1 4 11 14 48 49 52 56 59 64
c55 64 0 0.00217675f
c56 59 0 0.00108094f
c57 56 0 0.00124681f
c58 49 0 0.0015457f
c59 48 0 0.00468746f
c60 14 0 0.0283476f
c61 4 0 0.0279274f
r62 56 64 19.535
r63 55 56 19.535
r64 52 55 13.525
r65 52 53 45.7052
r66 49 59 19.535
r67 48 53 13.9914
r68 48 49 19.535
r69 17 64 19.38
r70 14 17 10.6093
r71 11 14 0.277778
r72 7 59 19.38
r73 4 7 10.6093
r74 1 4 0.277778
.ends

.subckt PM_COL_SEL_SEL0_0 2 5 7 9 12 15 17 19 34 37 39 41 44 47 49 51 77 80 82
+ 85 90 92 95 97 99 102 105 107 109 173 187 192 198 204 207 213 214 218 219 223
+ 224 229 230 234 271
c262 271 0 5.68335e-19
c263 234 0 5.18343e-19
c264 230 0 0.0104341f
c265 229 0 0.0023915f
c266 224 0 4.42678e-19
c267 223 0 5.532e-19
c268 219 0 4.58965e-19
c269 218 0 9.215e-19
c270 214 0 3.87445e-19
c271 213 0 0.00150377f
c272 207 0 0.00217449f
c273 204 0 2.55853e-19
c274 198 0 4.70673e-19
c275 192 0 0.00100686f
c276 187 0 0.00327501f
c277 173 0 3.51039e-19
c278 109 0 3.6165e-19
c279 105 0 0.00308362f
c280 102 0 0.113408f
c281 99 0 4.35755e-19
c282 95 0 0.00302272f
c283 92 0 0.117144f
c284 90 0 0.00175274f
c285 85 0 0.0338325f
c286 80 0 0.0351549f
c287 51 0 0.00106768f
c288 47 0 0.0046254f
c289 44 0 0.128433f
c290 41 0 9.65889e-19
c291 37 0 0.0046254f
c292 34 0 0.125015f
c293 19 0 9.65889e-19
c294 15 0 0.0046254f
c295 12 0 0.125015f
c296 9 0 0.00226436f
c297 5 0 0.00427093f
c298 2 0 0.0967347f
r299 301 302 6.52931
r300 300 301 11.4263
r301 299 300 11.4263
r302 298 299 1.16595
r303 297 298 5.36336
r304 296 297 6.06293
r305 295 296 4.19742
r306 292 293 1.16595
r307 291 292 5.36336
r308 290 291 6.06293
r309 289 290 4.19742
r310 286 287 1.16595
r311 285 286 5.36336
r312 284 285 6.06293
r313 283 284 4.19742
r314 280 281 1.16595
r315 279 280 5.36336
r316 278 279 6.06293
r317 277 278 4.19742
r318 263 295 5.82974
r319 263 293 15.1573
r320 262 267 8.86121
r321 262 263 19.535
r322 255 289 5.82974
r323 255 287 15.1573
r324 254 259 8.86121
r325 254 255 19.535
r326 247 283 5.82974
r327 247 281 15.1573
r328 246 251 8.86121
r329 246 247 19.535
r330 239 277 5.82974
r331 238 243 8.86121
r332 238 239 19.535
r333 234 271 19.535
r334 233 235 38.4763
r335 233 234 19.535
r336 230 302 11.4263
r337 229 235 16.3233
r338 229 230 19.535
r339 226 227 4.19742
r340 223 226 2.56509
r341 223 224 19.535
r342 221 227 8.39483
r343 219 220 7.22888
r344 218 221 1.02627
r345 218 220 15.8569
r346 215 216 0.466379
r347 214 215 4.19742
r348 212 216 2.09871
r349 212 213 19.535
r350 210 219 1.02627
r351 210 214 10.2603
r352 203 224 16.3233
r353 203 204 0.777784
r354 202 271 16.3233
r355 202 204 0.777784
r356 199 224 2.56509
r357 198 200 2.09871
r358 198 199 0.107873
r359 193 271 2.56509
r360 192 194 2.09871
r361 192 193 0.107873
r362 186 213 16.3233
r363 186 187 0.777784
r364 179 207 0.9184
r365 179 181 4.4306
r366 174 204 0.202133
r367 173 207 0.9184
r368 173 174 6.29612
r369 169 187 0.202133
r370 169 171 4.4306
r371 109 181 4.19742
r372 109 110 19.38
r373 105 110 10.0423
r374 105 107 24.1072
r375 102 105 24.1072
r376 99 171 4.19742
r377 99 100 19.38
r378 95 100 10.0423
r379 95 97 24.1072
r380 92 95 24.1072
r381 89 194 4.19742
r382 89 90 19.38
r383 87 200 4.19742
r384 87 88 19.38
r385 85 90 18.5662
r386 82 85 0.185185
r387 80 88 18.5662
r388 77 80 0.185185
r389 51 267 0.23319
r390 51 52 19.38
r391 47 52 10.0423
r392 47 49 28.9286
r393 44 47 28.9286
r394 41 259 0.23319
r395 41 42 19.38
r396 37 42 10.0423
r397 37 39 28.9286
r398 34 37 28.9286
r399 19 251 0.23319
r400 19 20 19.38
r401 15 20 10.0423
r402 15 17 28.9286
r403 12 15 28.9286
r404 9 243 0.23319
r405 9 10 19.38
r406 5 10 10.0423
r407 5 7 28.9286
r408 2 5 28.9286
.ends

.subckt PM_COL_SEL_XAND.OUT_B 2 5 7 9 18 21 23 24 27 30 33 34 38 40 54 56 59 62
c74 62 0 0.00261417f
c75 59 0 4.71207e-19
c76 56 0 0.00104145f
c77 54 0 0.00160308f
c78 41 0 4.87929e-19
c79 40 0 5.1124e-19
c80 38 0 6.76422e-19
c81 34 0 2.94753e-19
c82 33 0 7.77414e-19
c83 30 0 8.22004e-19
c84 27 0 4.5317e-19
c85 23 0 0.00270114f
c86 21 0 0.0354191f
c87 9 0 6.64561e-19
c88 5 0 0.0030654f
c89 2 0 0.117171f
r90 56 57 2.09871
r91 53 57 4.19742
r92 53 54 19.38
r93 48 62 0.9184
r94 48 50 4.4306
r95 42 59 0.202133
r96 41 62 0.9184
r97 41 42 6.29612
r98 39 59 0.777784
r99 39 40 5.13017
r100 38 59 0.777784
r101 37 56 0.107873
r102 37 38 18.8884
r103 35 36 0.932759
r104 34 35 6.29612
r105 33 40 1.02627
r106 33 36 7.46207
r107 28 34 1.02627
r108 28 30 9.56078
r109 27 30 19.38
r110 24 27 0.62963
r111 23 27 0.62963
r112 21 54 18.5662
r113 18 21 0.185185
r114 9 50 4.19742
r115 9 10 19.38
r116 5 10 10.0423
r117 5 7 24.1072
r118 2 5 24.1072
.ends

.subckt PM_COL_SEL_QB12 1 4 7 11 14 17 47 49 50 52 54 55 61 62 65 68
c71 68 0 0.00198375f
c72 62 0 0.00143857f
c73 61 0 0.00366037f
c74 55 0 0.0010829f
c75 54 0 5.43325e-19
c76 52 0 5.74614e-19
c77 50 0 0.00183521f
c78 49 0 0.00173866f
c79 47 0 5.83687e-19
c80 17 0 0.00296781f
c81 14 0 0.0256376f
c82 7 0 0.0028291f
c83 4 0 0.0257146f
r84 69 70 4.66379
r85 67 70 13.9914
r86 67 68 19.535
r87 65 69 4.89698
r88 61 65 22.8526
r89 61 62 19.535
r90 59 68 13.0586
r91 58 62 9.56078
r92 54 56 3.26466
r93 54 55 19.535
r94 52 59 1.02627
r95 52 56 6.06293
r96 49 50 19.535
r97 47 58 1.02627
r98 47 49 9.32759
r99 17 55 19.38
r100 14 17 10.6093
r101 11 14 0.277778
r102 7 50 19.38
r103 4 7 10.6093
r104 1 4 0.277778
.ends

.subckt PM_COL_SEL_Q12 1 4 11 14 48 49 52 56 59 64
c65 64 0 0.00151396f
c66 59 0 0.00130355f
c67 56 0 0.00133039f
c68 49 0 9.82613e-19
c69 48 0 0.00456298f
c70 14 0 0.0282936f
c71 4 0 0.0286395f
r72 56 64 19.535
r73 55 56 19.535
r74 52 55 13.525
r75 52 53 45.7052
r76 49 59 19.535
r77 48 53 13.9914
r78 48 49 19.535
r79 17 64 19.38
r80 14 17 10.6093
r81 11 14 0.277778
r82 7 59 19.38
r83 4 7 10.6093
r84 1 4 0.277778
.ends

.subckt PM_COL_SEL_QB8 1 4 7 11 14 17 47 49 50 53 55 56 62 63 66 69
c74 69 0 5.98222e-19
c75 63 0 0.00113569f
c76 62 0 0.00372681f
c77 56 0 0.00109966f
c78 55 0 5.13925e-19
c79 53 0 2.76595e-19
c80 50 0 0.00100185f
c81 49 0 0.001418f
c82 47 0 8.26807e-19
c83 17 0 0.00306843f
c84 14 0 0.0262951f
c85 7 0 0.00288498f
c86 4 0 0.0261865f
r87 71 72 4.19742
r88 70 71 9.56078
r89 68 72 0.23319
r90 68 69 19.535
r91 66 70 9.56078
r92 62 66 22.8526
r93 62 63 19.535
r94 60 69 13.0586
r95 59 63 9.56078
r96 55 57 3.26466
r97 55 56 19.535
r98 53 60 1.02627
r99 53 57 6.06293
r100 49 51 3.26466
r101 49 50 19.535
r102 47 59 1.02627
r103 47 51 6.06293
r104 17 56 19.38
r105 14 17 10.6093
r106 11 14 0.277778
r107 7 50 19.38
r108 4 7 10.6093
r109 1 4 0.277778
.ends

.subckt PM_COL_SEL_Q8 1 4 11 14 48 49 52 56 59 64
c60 64 0 0.00161709f
c61 59 0 0.00163653f
c62 56 0 0.0019392f
c63 49 0 0.00129945f
c64 48 0 0.00504152f
c65 14 0 0.0288035f
c66 4 0 0.0285437f
r67 56 64 19.535
r68 55 56 19.535
r69 52 55 13.525
r70 52 53 45.7052
r71 49 59 19.535
r72 48 53 13.9914
r73 48 49 19.535
r74 17 64 19.38
r75 14 17 10.6093
r76 11 14 0.277778
r77 7 59 19.38
r78 4 7 10.6093
r79 1 4 0.277778
.ends

.subckt PM_COL_SEL_QB13 1 4 7 11 14 17 47 49 50 52 54 55 61 62 65 68
c72 68 0 6.56019e-19
c73 62 0 7.43238e-19
c74 61 0 0.001844f
c75 55 0 0.00124598f
c76 54 0 6.02067e-19
c77 52 0 5.05509e-19
c78 50 0 0.00246013f
c79 49 0 0.00144091f
c80 47 0 8.78355e-19
c81 17 0 0.00311733f
c82 14 0 0.0262992f
c83 7 0 0.00292132f
c84 4 0 0.0263309f
r85 67 69 13.9914
r86 67 68 19.535
r87 65 69 9.56078
r88 61 65 22.8526
r89 61 62 19.535
r90 59 68 13.0586
r91 58 62 9.56078
r92 54 56 3.26466
r93 54 55 19.535
r94 52 59 1.02627
r95 52 56 6.06293
r96 49 50 19.535
r97 47 58 1.02627
r98 47 49 9.32759
r99 17 55 19.38
r100 14 17 10.6093
r101 11 14 0.277778
r102 7 50 19.38
r103 4 7 10.6093
r104 1 4 0.277778
.ends

.subckt PM_COL_SEL_Q13 1 4 11 14 48 49 52 56 59 64
c65 64 0 0.00135508f
c66 59 0 0.00125562f
c67 56 0 0.00152485f
c68 49 0 0.00101099f
c69 48 0 0.00367629f
c70 14 0 0.0281794f
c71 4 0 0.0283784f
r72 56 64 19.535
r73 55 56 19.535
r74 52 55 13.525
r75 52 53 45.7052
r76 49 59 19.535
r77 48 53 13.9914
r78 48 49 19.535
r79 17 64 19.38
r80 14 17 10.6093
r81 11 14 0.277778
r82 7 59 19.38
r83 4 7 10.6093
r84 1 4 0.277778
.ends

.subckt PM_COL_SEL_QB9 1 4 7 11 14 17 47 49 50 53 55 56 62 63 66 69
c77 69 0 7.4729e-19
c78 63 0 0.00123977f
c79 62 0 0.00199748f
c80 56 0 0.00113312f
c81 55 0 8.52098e-19
c82 53 0 3.56076e-19
c83 50 0 0.00119144f
c84 49 0 0.00142361f
c85 47 0 7.10325e-19
c86 17 0 0.00309005f
c87 14 0 0.0264975f
c88 7 0 0.00294137f
c89 4 0 0.0264975f
r90 68 70 13.9914
r91 68 69 19.535
r92 66 70 9.56078
r93 62 66 22.8526
r94 62 63 19.535
r95 60 69 13.0586
r96 59 63 9.56078
r97 55 57 3.26466
r98 55 56 19.535
r99 53 60 1.02627
r100 53 57 6.06293
r101 49 51 3.26466
r102 49 50 19.535
r103 47 59 1.02627
r104 47 51 6.06293
r105 17 56 19.38
r106 14 17 10.6093
r107 11 14 0.277778
r108 7 50 19.38
r109 4 7 10.6093
r110 1 4 0.277778
.ends

.subckt PM_COL_SEL_Q9 1 4 11 14 48 49 52 56 59 64
c58 64 0 0.00175387f
c59 59 0 0.00129983f
c60 56 0 0.00194282f
c61 49 0 0.0014085f
c62 48 0 0.00435832f
c63 14 0 0.0282456f
c64 4 0 0.0282525f
r65 56 64 19.535
r66 55 56 19.535
r67 52 55 13.525
r68 52 53 45.7052
r69 49 59 19.535
r70 48 53 13.9914
r71 48 49 19.535
r72 17 64 19.38
r73 14 17 10.6093
r74 11 14 0.277778
r75 7 59 19.38
r76 4 7 10.6093
r77 1 4 0.277778
.ends

.subckt PM_COL_SEL_QB14 1 4 7 11 14 17 47 49 50 52 54 55 61 62 65 68
c73 68 0 5.69263e-19
c74 62 0 6.43591e-19
c75 61 0 0.00183567f
c76 55 0 0.00115864f
c77 54 0 6.04113e-19
c78 52 0 3.81835e-19
c79 50 0 0.0022612f
c80 49 0 0.00173288f
c81 47 0 9.60041e-19
c82 17 0 0.00311841f
c83 14 0 0.0263096f
c84 7 0 0.00292239f
c85 4 0 0.0263413f
r86 67 69 13.9914
r87 67 68 19.535
r88 65 69 9.56078
r89 61 65 22.8526
r90 61 62 19.535
r91 59 68 13.0586
r92 58 62 9.56078
r93 54 56 3.26466
r94 54 55 19.535
r95 52 59 1.02627
r96 52 56 6.06293
r97 49 50 19.535
r98 47 58 1.02627
r99 47 49 9.32759
r100 17 55 19.38
r101 14 17 10.6093
r102 11 14 0.277778
r103 7 50 19.38
r104 4 7 10.6093
r105 1 4 0.277778
.ends

.subckt PM_COL_SEL_Q14 1 4 11 14 48 49 52 56 59 64
c68 64 0 0.00126584f
c69 59 0 0.00124152f
c70 56 0 0.0016088f
c71 49 0 0.00104715f
c72 48 0 0.00453337f
c73 14 0 0.0277563f
c74 4 0 0.0279552f
r75 56 64 19.535
r76 55 56 19.535
r77 52 55 13.525
r78 52 53 45.7052
r79 49 59 19.535
r80 48 53 13.9914
r81 48 49 19.535
r82 17 64 19.38
r83 14 17 10.6093
r84 11 14 0.277778
r85 7 59 19.38
r86 4 7 10.6093
r87 1 4 0.277778
.ends

.subckt PM_COL_SEL_QB10 1 4 7 11 14 17 47 49 50 53 55 56 62 63 66 69
c79 69 0 8.92986e-19
c80 63 0 0.00117845f
c81 62 0 0.00312727f
c82 56 0 0.00109513f
c83 55 0 6.50777e-19
c84 53 0 3.65583e-19
c85 50 0 0.00119734f
c86 49 0 0.0014266f
c87 47 0 6.61208e-19
c88 17 0 0.0030909f
c89 14 0 0.0265057f
c90 7 0 0.00294222f
c91 4 0 0.0265057f
r92 68 70 13.9914
r93 68 69 19.535
r94 66 70 9.56078
r95 62 66 22.8526
r96 62 63 19.535
r97 60 69 13.0586
r98 59 63 9.56078
r99 55 57 3.26466
r100 55 56 19.535
r101 53 60 1.02627
r102 53 57 6.06293
r103 49 51 3.26466
r104 49 50 19.535
r105 47 59 1.02627
r106 47 51 6.06293
r107 17 56 19.38
r108 14 17 10.6093
r109 11 14 0.277778
r110 7 50 19.38
r111 4 7 10.6093
r112 1 4 0.277778
.ends

.subckt PM_COL_SEL_Q10 1 4 11 14 48 49 52 56 59 64
c60 64 0 0.00161635f
c61 59 0 0.00126691f
c62 56 0 0.0015967f
c63 49 0 0.00106228f
c64 48 0 0.00510798f
c65 14 0 0.0284148f
c66 4 0 0.028348f
r67 56 64 19.535
r68 55 56 19.535
r69 52 55 13.525
r70 52 53 45.7052
r71 49 59 19.535
r72 48 53 13.9914
r73 48 49 19.535
r74 17 64 19.38
r75 14 17 10.6093
r76 11 14 0.277778