* File: COL_DRIVER_ARRAY.pex.netlist.pex
* Created: Sat Jun 27 18:21:20 2026
* Program "Calibre xACT"
* Version "v2019.2_26.18"
* Nominal Temperature: 25C
* Circuit Temperature: 27C
* 
.subckt PM_COL_DRIVER_ARRAY_X_SLICE0.XAND1.OUT_B 2 5 7 9 18 21 23 24 27 30 33 34
+ 38 40 54 56 59 62
c77 62 0 0.00194125f
c78 59 0 2.75494e-19
c79 56 0 9.85475e-19
c80 54 0 0.001767f
c81 41 0 4.72855e-19
c82 40 0 4.33307e-19
c83 38 0 5.33473e-19
c84 34 0 4.56771e-19
c85 33 0 8.29151e-19
c86 30 0 4.4893e-19
c87 27 0 2.43091e-19
c88 23 0 0.00307954f
c89 21 0 0.0348995f
c90 9 0 5.56247e-19
c91 5 0 0.00337168f
c92 2 0 0.116116f
r93 56 57 2.09871
r94 53 57 4.19742
r95 53 54 19.38
r96 48 62 0.9184
r97 48 50 4.4306
r98 42 59 0.202133
r99 41 62 0.9184
r100 41 42 6.29612
r101 39 59 0.777784
r102 39 40 5.13017
r103 38 59 0.777784
r104 37 56 0.107873
r105 37 38 18.8884
r106 35 36 0.932759
r107 34 35 6.29612
r108 33 40 1.02627
r109 33 36 7.46207
r110 28 34 1.02627
r111 28 30 9.56078
r112 27 30 19.38
r113 24 27 0.62963
r114 23 27 0.62963
r115 21 54 18.5662
r116 18 21 0.185185
r117 9 50 4.19742
r118 9 10 19.38
r119 5 10 10.0423
r120 5 7 24.1072
r121 2 5 24.1072
.ends

.subckt PM_COL_DRIVER_ARRAY_X_SLICE0.XAND1.N1 1 2 5
c14 5 0 6.86061e-19
c15 1 0 0.00750771f
r16 2 5 0.209877
r17 1 5 0.209877
.ends

.subckt PM_COL_DRIVER_ARRAY_X_SLICE0.XAND0.OUT_B 2 5 7 9 18 21 23 24 27 30 33 34
+ 38 40 41 54 56 59 62
c76 62 0 0.00252148f
c77 59 0 2.65992e-19
c78 56 0 0.00114538f
c79 54 0 0.00175281f
c80 41 0 2.8898e-19
c81 40 0 2.89486e-19
c82 38 0 5.12398e-19
c83 34 0 4.72199e-19
c84 33 0 8.11419e-19
c85 30 0 1.07634e-19
c86 27 0 1.55167e-19
c87 23 0 0.00269321f
c88 21 0 0.0346258f
c89 9 0 5.44116e-19
c90 5 0 0.00331625f
c91 2 0 0.12606f
r92 56 57 2.09871
r93 53 57 4.19742
r94 53 54 19.38
r95 48 62 0.9184
r96 48 50 4.4306
r97 42 59 0.202133
r98 41 62 0.9184
r99 41 42 6.29612
r100 39 59 0.777784
r101 39 40 5.13017
r102 38 59 0.777784
r103 37 56 0.107873
r104 37 38 18.8884
r105 35 36 0.932759
r106 34 35 6.29612
r107 33 40 1.02627
r108 33 36 7.46207
r109 28 34 1.02627
r110 28 30 9.56078
r111 27 30 19.38
r112 24 27 0.62963
r113 23 27 0.62963
r114 21 54 18.5662
r115 18 21 0.185185
r116 9 50 4.19742
r117 9 10 19.38
r118 5 10 10.0423
r119 5 7 24.1072
r120 2 5 24.1072
.ends

.subckt PM_COL_DRIVER_ARRAY_X_SLICE0.XAND0.N1 1 2 5
c15 5 0 6.69744e-19
c16 1 0 0.00751259f
r17 2 5 0.209877
r18 1 5 0.209877
.ends

.subckt PM_COL_DRIVER_ARRAY_X_SLICE1.XAND1.OUT_B 2 5 7 9 18 21 23 24 27 30 33 34
+ 38 40 54 56 59 62
c76 62 0 0.0019384f
c77 59 0 2.74691e-19
c78 56 0 9.72347e-19
c79 54 0 0.00176561f
c80 41 0 4.72805e-19
c81 40 0 4.32659e-19
c82 38 0 5.33856e-19
c83 34 0 4.44011e-19
c84 33 0 8.27759e-19
c85 30 0 4.47267e-19
c86 27 0 2.42292e-19
c87 23 0 0.00313386f
c88 21 0 0.0348525f
c89 9 0 5.55462e-19
c90 5 0 0.00336214f
c91 2 0 0.115654f
r92 56 57 2.09871
r93 53 57 4.19742
r94 53 54 19.38
r95 48 62 0.9184
r96 48 50 4.4306
r97 42 59 0.202133
r98 41 62 0.9184
r99 41 42 6.29612
r100 39 59 0.777784
r101 39 40 5.13017
r102 38 59 0.777784
r103 37 56 0.107873
r104 37 38 18.8884
r105 35 36 0.932759
r106 34 35 6.29612
r107 33 40 1.02627
r108 33 36 7.46207
r109 28 34 1.02627
r110 28 30 9.56078
r111 27 30 19.38
r112 24 27 0.62963
r113 23 27 0.62963
r114 21 54 18.5662
r115 18 21 0.185185
r116 9 50 4.19742
r117 9 10 19.38
r118 5 10 10.0423
r119 5 7 24.1072
r120 2 5 24.1072
.ends

.subckt PM_COL_DRIVER_ARRAY_X_SLICE1.XAND1.N1 1 2 5
c14 5 0 8.59176e-19
c15 1 0 0.00760179f
r16 2 5 0.209877
r17 1 5 0.209877
.ends

.subckt PM_COL_DRIVER_ARRAY_X_SLICE1.XAND0.OUT_B 2 5 7 9 18 21 23 24 27 30 33 34
+ 38 40 41 54 56 59 62
c74 62 0 0.00266807f
c75 59 0 2.66545e-19
c76 56 0 0.00116306f
c77 54 0 0.00175379f
c78 41 0 2.89063e-19
c79 40 0 2.89721e-19
c80 38 0 5.12828e-19
c81 34 0 5.18298e-19
c82 33 0 8.12312e-19
c83 30 0 2.6946e-19
c84 27 0 1.65242e-19
c85 23 0 0.00269973f
c86 21 0 0.0346524f
c87 9 0 5.45781e-19
c88 5 0 0.00332162f
c89 2 0 0.126376f
r90 56 57 2.09871
r91 53 57 4.19742
r92 53 54 19.38
r93 48 62 0.9184
r94 48 50 4.4306
r95 42 59 0.202133
r96 41 62 0.9184
r97 41 42 6.29612
r98 39 59 0.777784
r99 39 40 5.13017
r100 38 59 0.777784
r101 37 56 0.107873
r102 37 38 18.8884
r103 35 36 0.932759
r104 34 35 6.29612
r105 33 40 1.02627
r106 33 36 7.46207
r107 28 34 1.02627
r108 28 30 9.56078
r109 27 30 19.38
r110 24 27 0.62963
r111 23 27 0.62963
r112 21 54 18.5662
r113 18 21 0.185185
r114 9 50 4.19742
r115 9 10 19.38
r116 5 10 10.0423
r117 5 7 24.1072
r118 2 5 24.1072
.ends

.subckt PM_COL_DRIVER_ARRAY_X_SLICE1.XAND0.N1 1 2 5
c14 5 0 8.40056e-19
c15 1 0 0.00775712f
r16 2 5 0.209877
r17 1 5 0.209877
.ends

.subckt PM_COL_DRIVER_ARRAY_X_SLICE4.XAND1.OUT_B 2 5 7 9 18 21 23 24 27 30 33 34
+ 38 40 41 54 56 59 62
c75 62 0 0.00265928f
c76 59 0 2.66127e-19
c77 56 0 0.00117549f
c78 54 0 0.00175296f
c79 41 0 2.89e-19
c80 40 0 2.89543e-19
c81 38 0 4.80338e-19
c82 34 0 4.77982e-19
c83 33 0 8.11637e-19
c84 30 0 2.39706e-19
c85 27 0 1.5932e-19
c86 23 0 0.00269784f
c87 21 0 0.0346323f
c88 9 0 5.47967e-19
c89 5 0 0.00331756f
c90 2 0 0.126137f
r91 56 57 2.09871
r92 53 57 4.19742
r93 53 54 19.38
r94 48 62 0.9184
r95 48 50 4.4306
r96 42 59 0.202133
r97 41 62 0.9184
r98 41 42 6.29612
r99 39 59 0.777784
r100 39 40 5.13017
r101 38 59 0.777784
r102 37 56 0.107873
r103 37 38 18.8884
r104 35 36 0.932759
r105 34 35 6.29612
r106 33 40 1.02627
r107 33 36 7.46207
r108 28 34 1.02627
r109 28 30 9.56078
r110 27 30 19.38
r111 24 27 0.62963
r112 23 27 0.62963
r113 21 54 18.5662
r114 18 21 0.185185
r115 9 50 4.19742
r116 9 10 19.38
r117 5 10 10.0423
r118 5 7 24.1072
r119 2 5 24.1072
.ends

.subckt PM_COL_DRIVER_ARRAY_X_SLICE4.XAND1.N1 1 2 5
c14 5 0 8.77867e-19
c15 1 0 0.00757179f
r16 2 5 0.209877
r17 1 5 0.209877
.ends

.subckt PM_COL_DRIVER_ARRAY_X_SLICE4.XAND0.OUT_B 2 5 7 9 18 21 23 24 27 30 33 34
+ 38 40 41 54 56 59 62
c73 62 0 0.00254253f
c74 59 0 2.65996e-19
c75 56 0 0.00111304f
c76 54 0 0.00175063f
c77 41 0 2.88981e-19
c78 40 0 2.89488e-19
c79 38 0 4.79195e-19
c80 34 0 4.90955e-19
c81 33 0 8.11427e-19
c82 30 0 2.0712e-19
c83 27 0 2.56179e-19
c84 23 0 0.00262202f
c85 21 0 0.0346261f
c86 9 0 5.44118e-19
c87 5 0 0.0033163f
c88 2 0 0.126095f
r89 56 57 2.09871
r90 53 57 4.19742
r91 53 54 19.38
r92 48 62 0.9184
r93 48 50 4.4306
r94 42 59 0.202133
r95 41 62 0.9184
r96 41 42 6.29612
r97 39 59 0.777784
r98 39 40 5.13017
r99 38 59 0.777784
r100 37 56 0.107873
r101 37 38 18.8884
r102 35 36 0.932759
r103 34 35 6.29612
r104 33 40 1.02627
r105 33 36 7.46207
r106 28 34 1.02627
r107 28 30 9.56078
r108 27 30 19.38
r109 24 27 0.62963
r110 23 27 0.62963
r111 21 54 18.5662
r112 18 21 0.185185
r113 9 50 4.19742
r114 9 10 19.38
r115 5 10 10.0423
r116 5 7 24.1072
r117 2 5 24.1072
.ends

.subckt PM_COL_DRIVER_ARRAY_X_SLICE4.XAND0.N1 1 2 5
c14 5 0 6.66132e-19
c15 1 0 0.00743707f
r16 2 5 0.209877
r17 1 5 0.209877
.ends

.subckt PM_COL_DRIVER_ARRAY_X_SLICE5.XAND1.OUT_B 2 5 7 9 18 21 23 24 27 30 33 34
+ 38 40 41 54 56 59 62
c75 62 0 0.00252024f
c76 59 0 2.6557e-19
c77 56 0 0.00134637f
c78 54 0 0.00175197f
c79 41 0 2.88917e-19
c80 40 0 2.89306e-19
c81 38 0 5.14786e-19
c82 34 0 5.17317e-19
c83 33 0 8.10733e-19
c84 30 0 2.68667e-19
c85 27 0 1.64653e-19
c86 23 0 0.00269127f
c87 21 0 0.0346056f
c88 9 0 5.45399e-19
c89 5 0 0.00331216f
c90 2 0 0.125819f
r91 56 57 2.09871
r92 53 57 4.19742
r93 53 54 19.38
r94 48 62 0.9184
r95 48 50 4.4306
r96 42 59 0.202133
r97 41 62 0.9184
r98 41 42 6.29612
r99 39 59 0.777784
r100 39 40 5.13017
r101 38 59 0.777784
r102 37 56 0.107873
r103 37 38 18.8884
r104 35 36 0.932759
r105 34 35 6.29612
r106 33 40 1.02627
r107 33 36 7.46207
r108 28 34 1.02627
r109 28 30 9.56078
r110 27 30 19.38
r111 24 27 0.62963
r112 23 27 0.62963
r113 21 54 18.5662
r114 18 21 0.185185
r115 9 50 4.19742
r116 9 10 19.38
r117 5 10 10.0423
r118 5 7 24.1072
r119 2 5 24.1072
.ends

.subckt PM_COL_DRIVER_ARRAY_X_SLICE5.XAND1.N1 1 2 5
c14 5 0 8.40116e-19
c15 1 0 0.00776633f
r16 2 5 0.209877
r17 1 5 0.209877
.ends

.subckt PM_COL_DRIVER_ARRAY_X_SLICE5.XAND0.OUT_B 2 5 7 9 18 21 23 24 27 30 33 34
+ 38 40 41 54 56 59 62
c74 62 0 0.00251532f
c75 59 0 2.65589e-19
c76 56 0 0.00131103f
c77 54 0 0.00175011f
c78 41 0 2.88919e-19
c79 40 0 2.89315e-19
c80 38 0 4.78077e-19
c81 34 0 5.17337e-19
c82 33 0 8.10765e-19
c83 30 0 2.68683e-19
c84 27 0 1.64641e-19
c85 23 0 0.00270997f
c86 21 0 0.0346066f
c87 9 0 5.45405e-19
c88 5 0 0.00331235f
c89 2 0 0.125831f
r90 56 57 2.09871
r91 53 57 4.19742
r92 53 54 19.38
r93 48 62 0.9184
r94 48 50 4.4306
r95 42 59 0.202133
r96 41 62 0.9184
r97 41 42 6.29612
r98 39 59 0.777784
r99 39 40 5.13017
r100 38 59 0.777784
r101 37 56 0.107873
r102 37 38 18.8884
r103 35 36 0.932759
r104 34 35 6.29612
r105 33 40 1.02627
r106 33 36 7.46207
r107 28 34 1.02627
r108 28 30 9.56078
r109 27 30 19.38
r110 24 27 0.62963
r111 23 27 0.62963
r112 21 54 18.5662
r113 18 21 0.185185
r114 9 50 4.19742
r115 9 10 19.38
r116 5 10 10.0423
r117 5 7 24.1072
r118 2 5 24.1072
.ends

.subckt PM_COL_DRIVER_ARRAY_X_SLICE5.XAND0.N1 1 2 5
c14 5 0 8.33865e-19
c15 1 0 0.0075613f
r16 2 5 0.209877
r17 1 5 0.209877
.ends

.subckt PM_COL_DRIVER_ARRAY_X_SLICE8.XAND1.OUT_B 2 5 7 9 18 21 23 24 27 30 33 34
+ 38 40 41 54 56 59 62
c74 62 0 0.00266137f
c75 59 0 2.66349e-19
c76 56 0 0.00112516f
c77 54 0 0.00175127f
c78 41 0 2.89034e-19
c79 40 0 2.89638e-19
c80 38 0 5.15903e-19
c81 34 0 4.7254e-19
c82 33 0 8.11997e-19
c83 30 0 1.27448e-19
c84 27 0 1.65126e-19
c85 23 0 0.00270045f
c86 21 0 0.034643f
c87 9 0 5.48055e-19
c88 5 0 0.00331972f
c89 2 0 0.126264f
r90 56 57 2.09871
r91 53 57 4.19742
r92 53 54 19.38
r93 48 62 0.9184
r94 48 50 4.4306
r95 42 59 0.202133
r96 41 62 0.9184
r97 41 42 6.29612
r98 39 59 0.777784
r99 39 40 5.13017
r100 38 59 0.777784
r101 37 56 0.107873
r102 37 38 18.8884
r103 35 36 0.932759
r104 34 35 6.29612
r105 33 40 1.02627
r106 33 36 7.46207
r107 28 34 1.02627
r108 28 30 9.56078
r109 27 30 19.38
r110 24 27 0.62963
r111 23 27 0.62963
r112 21 54 18.5662
r113 18 21 0.185185
r114 9 50 4.19742
r115 9 10 19.38
r116 5 10 10.0423
r117 5 7 24.1072
r118 2 5 24.1072
.ends

.subckt PM_COL_DRIVER_ARRAY_X_SLICE8.XAND1.N1 1 2 5
c13 5 0 8.452e-19
c14 1 0 0.00757393f
r15 2 5 0.209877
r16 1 5 0.209877
.ends

.subckt PM_COL_DRIVER_ARRAY_X_SLICE8.XAND0.OUT_B 2 5 7 9 18 21 23 24 27 30 33 34
+ 38 40 41 54 56 59 62
c75 62 0 0.00252218f
c76 59 0 2.66243e-19
c77 56 0 0.00134364f
c78 54 0 0.00175129f
c79 41 0 2.89018e-19
c80 40 0 2.89593e-19
c81 38 0 5.15821e-19
c82 34 0 5.81277e-19
c83 33 0 8.11825e-19
c84 30 0 1.07756e-19
c85 27 0 2.56334e-19
c86 23 0 0.00262491f
c87 21 0 0.0346379f
c88 9 0 5.44215e-19
c89 5 0 0.00331869f
c90 2 0 0.126204f
r91 56 57 2.09871
r92 53 57 4.19742
r93 53 54 19.38
r94 48 62 0.9184
r95 48 50 4.4306
r96 42 59 0.202133
r97 41 62 0.9184
r98 41 42 6.29612
r99 39 59 0.777784
r100 39 40 5.13017
r101 38 59 0.777784
r102 37 56 0.107873
r103 37 38 18.8884
r104 35 36 0.932759
r105 34 35 6.29612
r106 33 40 1.02627
r107 33 36 7.46207
r108 28 34 1.02627
r109 28 30 9.56078
r110 27 30 19.38
r111 24 27 0.62963
r112 23 27 0.62963
r113 21 54 18.5662
r114 18 21 0.185185
r115 9 50 4.19742
r116 9 10 19.38
r117 5 10 10.0423
r118 5 7 24.1072
r119 2 5 24.1072
.ends

.subckt PM_COL_DRIVER_ARRAY_X_SLICE8.XAND0.N1 1 2 5
c13 5 0 8.35535e-19
c14 1 0 0.0075903f
r15 2 5 0.209877
r16 1 5 0.209877
.ends

.subckt PM_COL_DRIVER_ARRAY_X_SLICE9.XAND1.OUT_B 2 5 7 9 18 21 23 24 27 30 33 34
+ 38 40 41 54 56 59 62
c75 62 0 0.00253935f
c76 59 0 2.65857e-19
c77 56 0 0.00128236f
c78 54 0 0.00175059f
c79 41 0 2.8896e-19
c80 40 0 2.89429e-19
c81 38 0 4.78238e-19
c82 34 0 5.17606e-19
c83 33 0 8.11198e-19
c84 30 0 2.68901e-19
c85 27 0 1.64834e-19
c86 23 0 0.00271314f
c87 21 0 0.0346194f
c88 9 0 5.45512e-19
c89 5 0 0.00331494f
c90 2 0 0.125983f
r91 56 57 2.09871
r92 53 57 4.19742
r93 53 54 19.38
r94 48 62 0.9184
r95 48 50 4.4306
r96 42 59 0.202133
r97 41 62 0.9184
r98 41 42 6.29612
r99 39 59 0.777784
r100 39 40 5.13017
r101 38 59 0.777784
r102 37 56 0.107873
r103 37 38 18.8884
r104 35 36 0.932759
r105 34 35 6.29612
r106 33 40 1.02627
r107 33 36 7.46207
r108 28 34 1.02627
r109 28 30 9.56078
r110 27 30 19.38
r111 24 27 0.62963
r112 23 27 0.62963
r113 21 54 18.5662
r114 18 21 0.185185
r115 9 50 4.19742
r116 9 10 19.38
r117 5 10 10.0423
r118 5 7 24.1072
r119 2 5 24.1072
.ends

.subckt PM_COL_DRIVER_ARRAY_X_SLICE9.XAND1.N1 1 2 5
c14 5 0 8.40308e-19
c15 1 0 0.00775674f
r16 2 5 0.209877
r17 1 5 0.209877
.ends

.subckt PM_COL_DRIVER_ARRAY_X_SLICE9.XAND0.OUT_B 2 5 7 9 18 21 23 24 27 30 33 34
+ 38 40 41 54 56 59 62
c75 62 0 0.00252044f
c76 59 0 2.65641e-19
c77 56 0 0.00132879f
c78 54 0 0.0017502f
c79 41 0 2.88927e-19
c80 40 0 2.89337e-19
c81 38 0 4.78108e-19
c82 34 0 5.17389e-19
c83 33 0 8.10849e-19
c84 30 0 2.68725e-19
c85 27 0 1.64674e-19
c86 23 0 0.00268908f
c87 21 0 0.0346091f
c88 9 0 5.45427e-19
c89 5 0 0.00331285f
c90 2 0 0.12586f
r91 56 57 2.09871
r92 53 57 4.19742
r93 53 54 19.38
r94 48 62 0.9184
r95 48 50 4.4306
r96 42 59 0.202133
r97 41 62 0.9184
r98 41 42 6.29612
r99 39 59 0.777784
r100 39 40 5.13017
r101 38 59 0.777784
r102 37 56 0.107873
r103 37 38 18.8884
r104 35 36 0.932759
r105 34 35 6.29612
r106 33 40 1.02627
r107 33 36 7.46207
r108 28 34 1.02627
r109 28 30 9.56078
r110 27 30 19.38
r111 24 27 0.62963
r112 23 27 0.62963
r113 21 54 18.5662
r114 18 21 0.185185
r115 9 50 4.19742
r116 9 10 19.38
r117 5 10 10.0423
r118 5 7 24.1072
r119 2 5 24.1072
.ends

.subckt PM_COL_DRIVER_ARRAY_X_SLICE9.XAND0.N1 1 2 5
c14 5 0 8.40349e-19
c15 1 0 0.00776597f
r16 2 5 0.209877
r17 1 5 0.209877
.ends

.subckt PM_COL_DRIVER_ARRAY_X_SLICE12.XAND1.OUT_B 2 5 7 9 18 21 23 24 27 30 33
+ 34 38 40 54 56 59 62
c76 62 0 0.0019307f
c77 59 0 2.75235e-19
c78 56 0 0.00113573f
c79 54 0 0.00176234f
c80 41 0 4.72839e-19
c81 40 0 4.33098e-19
c82 38 0 6.04384e-19
c83 34 0 5.75136e-19
c84 33 0 9.25949e-19
c85 30 0 5.01598e-19
c86 27 0 2.42833e-19
c87 23 0 0.00307529f
c88 21 0 0.0348843f
c89 9 0 5.55994e-19
c90 5 0 0.0033686f
c91 2 0 0.115953f
r92 56 57 2.09871
r93 53 57 4.19742
r94 53 54 19.38
r95 48 62 0.9184
r96 48 50 4.4306
r97 42 59 0.202133
r98 41 62 0.9184
r99 41 42 6.29612
r100 39 59 0.777784
r101 39 40 5.13017
r102 38 59 0.777784
r103 37 56 0.107873
r104 37 38 18.8884
r105 35 36 0.932759
r106 34 35 6.29612
r107 33 40 1.02627
r108 33 36 7.46207
r109 28 34 1.02627
r110 28 30 9.56078
r111 27 30 19.38
r112 24 27 0.62963
r113 23 27 0.62963
r114 21 54 18.5662
r115 18 21 0.185185
r116 9 50 4.19742
r117 9 10 19.38
r118 5 10 10.0423
r119 5 7 24.1072
r120 2 5 24.1072
.ends

.subckt PM_COL_DRIVER_ARRAY_X_SLICE12.XAND1.N1 1 2 5
c14 5 0 7.4566e-19
c15 1 0 0.00753577f
r16 2 5 0.209877
r17 1 5 0.209877
.ends

.subckt PM_COL_DRIVER_ARRAY_X_SLICE12.XAND0.OUT_B 2 5 7 9 18 21 23 24 27 30 33
+ 34 38 40 41 54 56 59 62
c75 62 0 0.00251484f
c76 59 0 2.65391e-19
c77 56 0 0.00100982f
c78 54 0 0.00175552f
c79 41 0 2.8889e-19
c80 40 0 2.8923e-19
c81 38 0 4.78864e-19
c82 34 0 4.71626e-19
c83 33 0 8.10448e-19
c84 30 0 1.07341e-19
c85 27 0 1.64473e-19
c86 23 0 0.00268917f
c87 21 0 0.0345971f
c88 9 0 5.4388e-19
c89 5 0 0.00331042f
c90 2 0 0.125718f
r91 56 57 2.09871
r92 53 57 4.19742
r93 53 54 19.38
r94 48 62 0.9184
r95 48 50 4.4306
r96 42 59 0.202133
r97 41 62 0.9184
r98 41 42 6.29612
r99 39 59 0.777784
r100 39 40 5.13017
r101 38 59 0.777784
r102 37 56 0.107873
r103 37 38 18.8884
r104 35 36 0.932759
r105 34 35 6.29612
r106 33 40 1.02627
r107 33 36 7.46207
r108 28 34 1.02627
r109 28 30 9.56078
r110 27 30 19.38
r111 24 27 0.62963
r112 23 27 0.62963
r113 21 54 18.5662
r114 18 21 0.185185
r115 9 50 4.19742
r116 9 10 19.38
r117 5 10 10.0423
r118 5 7 24.1072
r119 2 5 24.1072
.ends

.subckt PM_COL_DRIVER_ARRAY_X_SLICE12.XAND0.N1 1 2 5
c13 5 0 8.73202e-19
c14 1 0 0.00747277f
r15 2 5 0.209877
r16 1 5 0.209877
.ends

.subckt PM_COL_DRIVER_ARRAY_X_SLICE13.XAND1.OUT_B 2 5 7 9 18 21 23 24 27 30 33
+ 34 38 40 54 56 59 62
c76 62 0 0.0019316f
c77 59 0 2.75519e-19
c78 56 0 0.00113851f
c79 54 0 0.00176295f
c80 41 0 4.72857e-19
c81 40 0 4.33327e-19
c82 38 0 6.0497e-19
c83 34 0 4.37896e-19
c84 33 0 8.35987e-19
c85 30 0 4.55445e-19
c86 27 0 2.43116e-19
c87 23 0 0.00314741f
c88 21 0 0.034901f
c89 9 0 5.56271e-19
c90 5 0 0.00337197f
c91 2 0 0.116173f
r92 56 57 2.09871
r93 53 57 4.19742
r94 53 54 19.38
r95 48 62 0.9184
r96 48 50 4.4306
r97 42 59 0.202133
r98 41 62 0.9184
r99 41 42 6.29612
r100 39 59 0.777784
r101 39 40 5.13017
r102 38 59 0.777784
r103 37 56 0.107873
r104 37 38 18.8884
r105 35 36 0.932759
r106 34 35 6.29612
r107 33 40 1.02627
r108 33 36 7.46207
r109 28 34 1.02627
r110 28 30 9.56078
r111 27 30 19.38
r112 24 27 0.62963
r113 23 27 0.62963
r114 21 54 18.5662
r115 18 21 0.185185
r116 9 50 4.19742
r117 9 10 19.38
r118 5 10 10.0423
r119 5 7 24.1072
r120 2 5 24.1072
.ends

.subckt PM_COL_DRIVER_ARRAY_X_SLICE13.XAND1.N1 1 2 5
c14 5 0 8.58386e-19
c15 1 0 0.00760271f
r16 2 5 0.209877
r17 1 5 0.209877
.ends

.subckt PM_COL_DRIVER_ARRAY_X_SLICE13.XAND0.OUT_B 2 5 7 9 18 21 23 24 27 30 33
+ 34 38 40 41 54 56 59 62
c74 62 0 0.00251621f
c75 59 0 2.6591e-19
c76 56 0 0.00130933f
c77 54 0 0.00175685f
c78 41 0 2.88968e-19
c79 40 0 2.89451e-19
c80 38 0 4.78306e-19
c81 34 0 5.17659e-19
c82 33 0 8.11283e-19
c83 30 0 2.68944e-19
c84 27 0 1.64842e-19
c85 23 0 0.00271377f
c86 21 0 0.0346219f
c87 9 0 5.45532e-19
c88 5 0 0.00331545f
c89 2 0 0.126014f
r90 56 57 2.09871
r91 53 57 4.19742
r92 53 54 19.38
r93 48 62 0.9184
r94 48 50 4.4306
r95 42 59 0.202133
r96 41 62 0.9184
r97 41 42 6.29612
r98 39 59 0.777784
r99 39 40 5.13017
r100 38 59 0.777784
r101 37 56 0.107873
r102 37 38 18.8884
r103 35 36 0.932759
r104 34 35 6.29612
r105 33 40 1.02627
r106 33 36 7.46207
r107 28 34 1.02627
r108 28 30 9.56078
r109 27 30 19.38
r110 24 27 0.62963
r111 23 27 0.62963
r112 21 54 18.5662
r113 18 21 0.185185
r114 9 50 4.19742
r115 9 10 19.38
r116 5 10 10.0423
r117 5 7 24.1072
r118 2 5 24.1072
.ends

.subckt PM_COL_DRIVER_ARRAY_X_SLICE13.XAND0.N1 1 2 5
c14 5 0 8.40289e-19
c15 1 0 0.00775675f
r16 2 5 0.209877
r17 1 5 0.209877
.ends

.subckt PM_COL_DRIVER_ARRAY_X_SLICE2.XAND1.OUT_B 2 5 7 9 18 21 23 24 27 30 33 34
+ 38 40 54 56 59 62
c79 62 0 0.0019383f
c80 59 0 2.74663e-19
c81 56 0 9.72209e-19
c82 54 0 0.00176555f
c83 41 0 4.72803e-19
c84 40 0 4.32636e-19
c85 38 0 5.32811e-19
c86 34 0 4.36522e-19
c87 33 0 8.27709e-19
c88 30 0 4.47209e-19
c89 27 0 2.42263e-19
c90 23 0 0.0031334f
c91 21 0 0.0348508f
c92 9 0 5.55434e-19
c93 5 0 0.0033618f
c94 2 0 0.115595f
r95 56 57 2.09871
r96 53 57 4.19742
r97 53 54 19.38
r98 48 62 0.9184
r99 48 50 4.4306
r100 42 59 0.202133
r101 41 62 0.9184
r102 41 42 6.29612
r103 39 59 0.777784
r104 39 40 5.13017
r105 38 59 0.777784
r106 37 56 0.107873
r107 37 38 18.8884
r108 35 36 0.932759
r109 34 35 6.29612
r110 33 40 1.02627
r111 33 36 7.46207
r112 28 34 1.02627
r113 28 30 9.56078
r114 27 30 19.38
r115 24 27 0.62963
r116 23 27 0.62963
r117 21 54 18.5662
r118 18 21 0.185185
r119 9 50 4.19742
r120 9 10 19.38
r121 5 10 10.0423
r122 5 7 24.1072
r123 2 5 24.1072
.ends

.subckt PM_COL_DRIVER_ARRAY_X_SLICE2.XAND1.N1 1 2 5
c14 5 0 8.57691e-19
c15 1 0 0.0075715f
r16 2 5 0.209877
r17 1 5 0.209877
.ends

.subckt PM_COL_DRIVER_ARRAY_X_SLICE2.XAND0.OUT_B 2 5 7 9 18 21 23 24 27 30 33 34
+ 38 40 41 54 56 59 62
c75 62 0 0.0025221f
c76 59 0 2.66215e-19
c77 56 0 0.00132092f
c78 54 0 0.00175321f
c79 41 0 2.89013e-19
c80 40 0 2.89581e-19
c81 38 0 5.12567e-19
c82 34 0 4.72412e-19
c83 33 0 8.11779e-19
c84 30 0 1.07742e-19
c85 27 0 1.65034e-19
c86 23 0 0.00269583f
c87 21 0 0.0346365f
c88 9 0 5.48002e-19
c89 5 0 0.00331841f
c90 2 0 0.126203f
r91 56 57 2.09871
r92 53 57 4.19742
r93 53 54 19.38
r94 48 62 0.9184
r95 48 50 4.4306
r96 42 59 0.202133
r97 41 62 0.9184
r98 41 42 6.29612
r99 39 59 0.777784
r100 39 40 5.13017
r101 38 59 0.777784
r102 37 56 0.107873
r103 37 38 18.8884
r104 35 36 0.932759
r105 34 35 6.29612
r106 33 40 1.02627
r107 33 36 7.46207
r108 28 34 1.02627
r109 28 30 9.56078
r110 27 30 19.38
r111 24 27 0.62963
r112 23 27 0.62963
r113 21 54 18.5662
r114 18 21 0.185185
r115 9 50 4.19742
r116 9 10 19.38
r117 5 10 10.0423
r118 5 7 24.1072
r119 2 5 24.1072
.ends

.subckt PM_COL_DRIVER_ARRAY_X_SLICE2.XAND0.N1 1 2 5
c14 5 0 8.62221e-19
c15 1 0 0.0075522f
r16 2 5 0.209877
r17 1 5 0.209877
.ends

.subckt PM_COL_DRIVER_ARRAY_X_SLICE3.XAND1.OUT_B 2 5 7 9 18 21 23 24 27 30 33 34
+ 38 40 54 56 59 62
c78 62 0 0.00190765f
c79 59 0 2.75403e-19
c80 56 0 9.74803e-19
c81 54 0 0.00176719f
c82 41 0 4.7285e-19
c83 40 0 4.33234e-19
c84 38 0 5.334e-19
c85 34 0 4.53041e-19
c86 33 0 8.12277e-19
c87 30 0 4.48742e-19
c88 27 0 2.43001e-19
c89 23 0 0.00314552f
c90 21 0 0.0348942f
c91 9 0 5.56158e-19
c92 5 0 0.00337059f
c93 2 0 0.116059f
r94 56 57 2.09871
r95 53 57 4.19742
r96 53 54 19.38
r97 48 62 0.9184
r98 48 50 4.4306
r99 42 59 0.202133
r100 41 62 0.9184
r101 41 42 6.29612
r102 39 59 0.777784
r103 39 40 5.13017
r104 38 59 0.777784
r105 37 56 0.107873
r106 37 38 18.8884
r107 35 36 0.932759
r108 34 35 6.29612
r109 33 40 1.02627
r110 33 36 7.46207
r111 28 34 1.02627
r112 28 30 9.56078
r113 27 30 19.38
r114 24 27 0.62963
r115 23 27 0.62963
r116 21 54 18.5662
r117 18 21 0.185185
r118 9 50 4.19742
r119 9 10 19.38
r120 5 10 10.0423
r121 5 7 24.1072
r122 2 5 24.1072
.ends

.subckt PM_COL_DRIVER_ARRAY_X_SLICE3.XAND1.N1 1 2 5
c14 5 0 8.64192e-19
c15 1 0 0.00777616f
r16 2 5 0.209877
r17 1 5 0.209877
.ends

.subckt PM_COL_DRIVER_ARRAY_X_SLICE3.XAND0.OUT_B 2 5 7 9 18 21 23 24 27 30 33 34
+ 38 40 41 54 56 59 62
c75 62 0 0.00252118f
c76 59 0 2.65879e-19
c77 56 0 0.00129231f
c78 54 0 0.00175262f
c79 41 0 2.88963e-19
c80 40 0 2.89438e-19
c81 38 0 5.12314e-19
c82 34 0 4.72092e-19
c83 33 0 8.11238e-19
c84 30 0 1.07579e-19
c85 27 0 3.6905e-19
c86 23 0 0.00269188f
c87 21 0 0.0346204f
c88 9 0 7.38739e-19
c89 5 0 0.00331516f
c90 2 0 0.125996f
r91 56 57 2.09871
r92 53 57 4.19742
r93 53 54 19.38
r94 48 62 0.9184
r95 48 50 4.4306
r96 42 59 0.202133
r97 41 62 0.9184
r98 41 42 6.29612
r99 39 59 0.777784
r100 39 40 5.13017
r101 38 59 0.777784
r102 37 56 0.107873
r103 37 38 18.8884
r104 35 36 0.932759
r105 34 35 6.29612
r106 33 40 1.02627
r107 33 36 7.46207
r108 28 34 1.02627
r109 28 30 9.56078
r110 27 30 19.38
r111 24 27 0.62963
r112 23 27 0.62963
r113 21 54 18.5662
r114 18 21 0.185185
r115 9 50 4.19742
r116 9 10 19.38
r117 5 10 10.0423
r118 5 7 24.1072
r119 2 5 24.1072
.ends

.subckt PM_COL_DRIVER_ARRAY_X_SLICE3.XAND0.N1 1 2 5
c14 5 0 8.62174e-19
c15 1 0 0.00754297f
r16 2 5 0.209877
r17 1 5 0.209877
.ends

.subckt PM_COL_DRIVER_ARRAY_X_SLICE6.XAND1.OUT_B 2 5 7 9 18 21 23 24 27 30 33 34
+ 38 40 41 54 56 59 62
c74 62 0 0.00264224f
c75 59 0 2.66336e-19
c76 56 0 0.0013266f
c77 54 0 0.00175332f
c78 41 0 2.89032e-19
c79 40 0 2.89632e-19
c80 38 0 4.80465e-19
c81 34 0 4.78181e-19
c82 33 0 8.11975e-19
c83 30 0 1.07801e-19
c84 27 0 1.65135e-19
c85 23 0 0.0027003f
c86 21 0 0.0346423f
c87 9 0 5.4805e-19
c88 5 0 0.00331958f
c89 2 0 0.126272f
r90 56 57 2.09871
r91 53 57 4.19742
r92 53 54 19.38
r93 48 62 0.9184
r94 48 50 4.4306
r95 42 59 0.202133
r96 41 62 0.9184
r97 41 42 6.29612
r98 39 59 0.777784
r99 39 40 5.13017
r100 38 59 0.777784
r101 37 56 0.107873
r102 37 38 18.8884
r103 35 36 0.932759
r104 34 35 6.29612
r105 33 40 1.02627
r106 33 36 7.46207
r107 28 34 1.02627
r108 28 30 9.56078
r109 27 30 19.38
r110 24 27 0.62963
r111 23 27 0.62963
r112 21 54 18.5662
r113 18 21 0.185185
r114 9 50 4.19742
r115 9 10 19.38
r116 5 10 10.0423
r117 5 7 24.1072
r118 2 5 24.1072
.ends

.subckt PM_COL_DRIVER_ARRAY_X_SLICE6.XAND1.N1 1 2 5
c14 5 0 8.6227e-19
c15 1 0 0.0075521f
r16 2 5 0.209877
r17 1 5 0.209877
.ends

.subckt PM_COL_DRIVER_ARRAY_X_SLICE6.XAND0.OUT_B 2 5 7 9 18 21 23 24 27 30 33 34
+ 38 40 41 54 56 59 62
c75 62 0 0.0026626f
c76 59 0 2.66096e-19
c77 56 0 0.00112653f
c78 54 0 0.00175102f
c79 41 0 2.88996e-19
c80 40 0 2.8953e-19
c81 38 0 4.79255e-19
c82 34 0 4.72299e-19
c83 33 0 8.11588e-19
c84 30 0 1.07685e-19
c85 27 0 1.6496e-19
c86 23 0 0.00269444f
c87 21 0 0.0346309f
c88 9 0 5.47955e-19
c89 5 0 0.00331726f
c90 2 0 0.12612f
r91 56 57 2.09871
r92 53 57 4.19742
r93 53 54 19.38
r94 48 62 0.9184
r95 48 50 4.4306
r96 42 59 0.202133
r97 41 62 0.9184
r98 41 42 6.29612
r99 39 59 0.777784
r100 39 40 5.13017
r101 38 59 0.777784
r102 37 56 0.107873
r103 37 38 18.8884
r104 35 36 0.932759
r105 34 35 6.29612
r106 33 40 1.02627
r107 33 36 7.46207
r108 28 34 1.02627
r109 28 30 9.56078
r110 27 30 19.38
r111 24 27 0.62963
r112 23 27 0.62963
r113 21 54 18.5662
r114 18 21 0.185185
r115 9 50 4.19742
r116 9 10 19.38
r117 5 10 10.0423
r118 5 7 24.1072
r119 2 5 24.1072
.ends

.subckt PM_COL_DRIVER_ARRAY_X_SLICE6.XAND0.N1 1 2 5
c14 5 0 8.67808e-19
c15 1 0 0.00772924f
r16 2 5 0.209877
r17 1 5 0.209877
.ends

.subckt PM_COL_DRIVER_ARRAY_X_SLICE7.XAND1.OUT_B 2 5 7 9 18 21 23 24 27 30 33 34
+ 38 40 41 54 56 59 62
c75 62 0 0.00253958f
c76 59 0 2.65462e-19
c77 56 0 0.00125568f
c78 54 0 0.00175178f
c79 41 0 2.889e-19
c80 40 0 2.89261e-19
c81 38 0 4.79933e-19
c82 34 0 4.77347e-19
c83 33 0 8.10563e-19
c84 30 0 1.07376e-19
c85 27 0 3.69432e-19
c86 23 0 0.00269f
c87 21 0 0.0346005f
c88 9 0 8.97916e-19
c89 5 0 0.00331111f
c90 2 0 0.125758f
r91 56 57 2.09871
r92 53 57 4.19742
r93 53 54 19.38
r94 48 62 0.9184
r95 48 50 4.4306
r96 42 59 0.202133
r97 41 62 0.9184
r98 41 42 6.29612
r99 39 59 0.777784
r100 39 40 5.13017
r101 38 59 0.777784
r102 37 56 0.107873
r103 37 38 18.8884
r104 35 36 0.932759
r105 34 35 6.29612
r106 33 40 1.02627
r107 33 36 7.46207
r108 28 34 1.02627
r109 28 30 9.56078
r110 27 30 19.38
r111 24 27 0.62963
r112 23 27 0.62963
r113 21 54 18.5662
r114 18 21 0.185185
r115 9 50 4.19742
r116 9 10 19.38
r117 5 10 10.0423
r118 5 7 24.1072
r119 2 5 24.1072
.ends

.subckt PM_COL_DRIVER_ARRAY_X_SLICE7.XAND1.N1 1 2 5
c14 5 0 8.6227e-19
c15 1 0 0.0075521f
r16 2 5 0.209877
r17 1 5 0.209877
.ends

.subckt PM_COL_DRIVER_ARRAY_X_SLICE7.XAND0.OUT_B 2 5 7 9 18 21 23 24 27 30 33 34
+ 38 40 41 54 56 59 62
c74 62 0 0.00251263f
c75 59 0 2.64599e-19
c76 56 0 0.00114198f
c77 54 0 0.00174831f
c78 41 0 2.88771e-19
c79 40 0 2.88894e-19
c80 38 0 4.78347e-19
c81 34 0 4.70871e-19
c82 33 0 8.09169e-19
c83 30 0 1.06956e-19
c84 27 0 1.64019e-19
c85 23 0 0.00269822f
c86 21 0 0.0345592f
c87 9 0 7.08477e-19
c88 5 0 0.00330274f
c89 2 0 0.125298f
r90 56 57 2.09871
r91 53 57 4.19742
r92 53 54 19.38
r93 48 62 0.9184
r94 48 50 4.4306
r95 42 59 0.202133
r96 41 62 0.9184
r97 41 42 6.29612
r98 39 59 0.777784
r99 39 40 5.13017
r100 38 59 0.777784
r101 37 56 0.107873
r102 37 38 18.8884
r103 35 36 0.932759
r104 34 35 6.29612
r105 33 40 1.02627
r106 33 36 7.46207
r107 28 34 1.02627
r108 28 30 9.56078
r109 27 30 19.38
r110 24 27 0.62963
r111 23 27 0.62963
r112 21 54 18.5662
r113 18 21 0.185185
r114 9 50 4.19742
r115 9 10 19.38
r116 5 10 10.0423
r117 5 7 24.1072
r118 2 5 24.1072
.ends

.subckt PM_COL_DRIVER_ARRAY_X_SLICE7.XAND0.N1 1 2 5
c14 5 0 8.62326e-19
c15 1 0 0.0075646f
r16 2 5 0.209877
r17 1 5 0.209877
.ends

.subckt PM_COL_DRIVER_ARRAY_X_SLICE10.XAND1.OUT_B 2 5 7 9 18 21 23 24 27 30 33
+ 34 38 40 41 54 56 59 62
c74 62 0 0.00263755f
c75 59 0 2.66451e-19
c76 56 0 0.00128885f
c77 54 0 0.00175167f
c78 41 0 2.89049e-19
c79 40 0 2.89681e-19
c80 38 0 5.15981e-19
c81 34 0 4.72637e-19
c82 33 0 8.12161e-19
c83 30 0 1.07857e-19
c84 27 0 1.65207e-19
c85 23 0 0.00270165f
c86 21 0 0.0346478f
c87 9 0 5.48095e-19
c88 5 0 0.0033207f
c89 2 0 0.126338f
r90 56 57 2.09871
r91 53 57 4.19742
r92 53 54 19.38
r93 48 62 0.9184
r94 48 50 4.4306
r95 42 59 0.202133
r96 41 62 0.9184
r97 41 42 6.29612
r98 39 59 0.777784
r99 39 40 5.13017
r100 38 59 0.777784
r101 37 56 0.107873
r102 37 38 18.8884
r103 35 36 0.932759
r104 34 35 6.29612
r105 33 40 1.02627
r106 33 36 7.46207
r107 28 34 1.02627
r108 28 30 9.56078
r109 27 30 19.38
r110 24 27 0.62963
r111 23 27 0.62963
r112 21 54 18.5662
r113 18 21 0.185185
r114 9 50 4.19742
r115 9 10 19.38
r116 5 10 10.0423
r117 5 7 24.1072
r118 2 5 24.1072
.ends

.subckt PM_COL_DRIVER_ARRAY_X_SLICE10.XAND1.N1 1 2 5
c14 5 0 8.62397e-19
c15 1 0 0.00754262f
r16 2 5 0.209877
r17 1 5 0.209877
.ends

.subckt PM_COL_DRIVER_ARRAY_X_SLICE10.XAND0.OUT_B 2 5 7 9 18 21 23 24 27 30 33
+ 34 38 40 41 54 56 59 62
c74 62 0 0.00264158f
c75 59 0 2.66102e-19
c76 56 0 0.00137995f
c77 54 0 0.00175103f
c78 41 0 2.88996e-19
c79 40 0 2.89533e-19
c80 38 0 5.15713e-19
c81 34 0 4.77958e-19
c82 33 0 8.11597e-19
c83 30 0 1.07687e-19
c84 27 0 1.64963e-19
c85 23 0 0.00269451f
c86 21 0 0.0346311f
c87 9 0 5.47958e-19
c88 5 0 0.00331732f
c89 2 0 0.126139f
r90 56 57 2.09871
r91 53 57 4.19742
r92 53 54 19.38
r93 48 62 0.9184
r94 48 50 4.4306
r95 42 59 0.202133
r96 41 62 0.9184
r97 41 42 6.29612
r98 39 59 0.777784
r99 39 40 5.13017
r100 38 59 0.777784
r101 37 56 0.107873
r102 37 38 18.8884
r103 35 36 0.932759
r104 34 35 6.29612
r105 33 40 1.02627
r106 33 36 7.46207
r107 28 34 1.02627
r108 28 30 9.56078
r109 27 30 19.38
r110 24 27 0.62963
r111 23 27 0.62963
r112 21 54 18.5662
r113 18 21 0.185185
r114 9 50 4.19742
r115 9 10 19.38
r116 5 10 10.0423
r117 5 7 24.1072
r118 2 5 24.1072
.ends

.subckt PM_COL_DRIVER_ARRAY_X_SLICE10.XAND0.N1 1 2 5
c14 5 0 8.62444e-19
c15 1 0 0.00755185f
r16 2 5 0.209877
r17 1 5 0.209877
.ends

.subckt PM_COL_DRIVER_ARRAY_X_SLICE11.XAND1.OUT_B 2 5 7 9 18 21 23 24 27 30 33
+ 34 38 40 41 54 56 59 62
c74 62 0 0.00251165f
c75 59 0 2.64244e-19
c76 56 0 0.00127598f
c77 54 0 0.00174767f
c78 41 0 2.88717e-19
c79 40 0 2.88743e-19
c80 38 0 5.14284e-19
c81 34 0 4.70532e-19
c82 33 0 8.08595e-19
c83 30 0 1.06783e-19
c84 27 0 3.68667e-19
c85 23 0 0.00269401f
c86 21 0 0.0345422f
c87 9 0 8.97437e-19
c88 5 0 0.00329929f
c89 2 0 0.125063f
r90 56 57 2.09871
r91 53 57 4.19742
r92 53 54 19.38
r93 48 62 0.9184
r94 48 50 4.4306
r95 42 59 0.202133
r96 41 62 0.9184
r97 41 42 6.29612
r98 39 59 0.777784
r99 39 40 5.13017
r100 38 59 0.777784
r101 37 56 0.107873
r102 37 38 18.8884
r103 35 36 0.932759
r104 34 35 6.29612
r105 33 40 1.02627
r106 33 36 7.46207
r107 28 34 1.02627
r108 28 30 9.56078
r109 27 30 19.38
r110 24 27 0.62963
r111 23 27 0.62963
r112 21 54 18.5662
r113 18 21 0.185185
r114 9 50 4.19742
r115 9 10 19.38
r116 5 10 10.0423
r117 5 7 24.1072
r118 2 5 24.1072
.ends

.subckt PM_COL_DRIVER_ARRAY_X_SLICE11.XAND1.N1 1 2 5
c14 5 0 8.62397e-19
c15 1 0 0.00754262f
r16 2 5 0.209877
r17 1 5 0.209877
.ends
