* File: SRAM_array.pex.netlist
* Created: Mon Jun 29 01:23:32 2026
* Program "Calibre xACT"
* Version "v2019.2_26.18"
* 
.include "SRAM_array.pex.netlist.pex"
.subckt SRAM_Array_64x32  PRE BL0 VDD BLB0 BL1 BLB1 BL2 BLB2 BL3 BLB3 BL4 BLB4
+ BL5 BLB5 BL6 BLB6 BL7 BLB7 BL8 BLB8 BL9 BLB9 BL10 BLB10 BL11 BLB11 BL12 BLB12
+ BL13 BLB13 BL14 BLB14 BL15 BLB15 BL16 BLB16 BL17 BLB17 BL18 BLB18 BL19 BLB19
+ BL20 BLB20 BL21 BLB21 BL22 BLB22 BL23 BLB23 BL24 BLB24 BL25 BLB25 BL26 BLB26
+ BL27 BLB27 BL28 BLB28 BL29 BLB29 BL30 BLB30 BL31 BLB31 VSS WEN_BL0 WEN_BLB0
+ WEN_BL1 WEN_BLB1 WEN_BL2 WEN_BLB2 WEN_BL3 WEN_BLB3 WEN_BL4 WEN_BLB4 WEN_BL5
+ WEN_BLB5 WEN_BL6 WEN_BLB6 WEN_BL7 WEN_BLB7 WEN_BL8 WEN_BLB8 WEN_BL9 WEN_BLB9
+ WEN_BL10 WEN_BLB10 WEN_BL11 WEN_BLB11 WEN_BL12 WEN_BLB12 WEN_BL13 WEN_BLB13
+ WEN_BL14 WEN_BLB14 WEN_BL15 WEN_BLB15 WEN_BL16 WEN_BLB16 WEN_BL17 WEN_BLB17
+ WEN_BL18 WEN_BLB18 WEN_BL19 WEN_BLB19 WEN_BL20 WEN_BLB20 WEN_BL21 WEN_BLB21
+ WEN_BL22 WEN_BLB22 WEN_BL23 WEN_BLB23 WEN_BL24 WEN_BLB24 WEN_BL25 WEN_BLB25
+ WEN_BL26 WEN_BLB26 WEN_BL27 WEN_BLB27 WEN_BL28 WEN_BLB28 WEN_BL29 WEN_BLB29
+ WEN_BL30 WEN_BLB30 WEN_BL31 WEN_BLB31 WL0 WL1 WL2 WL3 WL4 WL5 WL6 WL7 WL8 WL9
+ WL10 WL11 WL12 WL13 WL14 WL15 WL16 WL17 WL18 WL19 WL20 WL21 WL22 WL23 WL24
+ WL25 WL26 WL27 WL28 WL29 WL30 WL31 WL32 WL33 WL34 WL35 WL36 WL37 WL38 WL39
+ WL40 WL41 WL42 WL43 WL44 WL45 WL46 WL47 WL48 WL49 WL50 WL51 WL52 WL53 WL54
+ WL55 WL56 WL57 WL58 WL59 WL60 WL61 WL62 WL63 VSS_SUB VDD_W
* 
* VDD_W	VDD_W
* VSS_SUB	VSS_SUB
* WL63	WL63
* WL62	WL62
* WL61	WL61
* WL60	WL60
* WL59	WL59
* WL58	WL58
* WL57	WL57
* WL56	WL56
* WL55	WL55
* WL54	WL54
* WL53	WL53
* WL52	WL52
* WL51	WL51
* WL50	WL50
* WL49	WL49
* WL48	WL48
* WL47	WL47
* WL46	WL46
* WL45	WL45
* WL44	WL44
* WL43	WL43
* WL42	WL42
* WL41	WL41
* WL40	WL40
* WL39	WL39
* WL38	WL38
* WL37	WL37
* WL36	WL36
* WL35	WL35
* WL34	WL34
* WL33	WL33
* WL32	WL32
* WL31	WL31
* WL30	WL30
* WL29	WL29
* WL28	WL28
* WL27	WL27
* WL26	WL26
* WL25	WL25
* WL24	WL24
* WL23	WL23
* WL22	WL22
* WL21	WL21
* WL20	WL20
* WL19	WL19
* WL18	WL18
* WL17	WL17
* WL16	WL16
* WL15	WL15
* WL14	WL14
* WL13	WL13
* WL12	WL12
* WL11	WL11
* WL10	WL10
* WL9	WL9
* WL8	WL8
* WL7	WL7
* WL6	WL6
* WL5	WL5
* WL4	WL4
* WL3	WL3
* WL2	WL2
* WL1	WL1
* WL0	WL0
* WEN_BLB31	WEN_BLB31
* WEN_BL31	WEN_BL31
* WEN_BLB30	WEN_BLB30
* WEN_BL30	WEN_BL30
* WEN_BLB29	WEN_BLB29
* WEN_BL29	WEN_BL29
* WEN_BLB28	WEN_BLB28
* WEN_BL28	WEN_BL28
* WEN_BLB27	WEN_BLB27
* WEN_BL27	WEN_BL27
* WEN_BLB26	WEN_BLB26
* WEN_BL26	WEN_BL26
* WEN_BLB25	WEN_BLB25
* WEN_BL25	WEN_BL25
* WEN_BLB24	WEN_BLB24
* WEN_BL24	WEN_BL24
* WEN_BLB23	WEN_BLB23
* WEN_BL23	WEN_BL23
* WEN_BLB22	WEN_BLB22
* WEN_BL22	WEN_BL22
* WEN_BLB21	WEN_BLB21
* WEN_BL21	WEN_BL21
* WEN_BLB20	WEN_BLB20
* WEN_BL20	WEN_BL20
* WEN_BLB19	WEN_BLB19
* WEN_BL19	WEN_BL19
* WEN_BLB18	WEN_BLB18
* WEN_BL18	WEN_BL18
* WEN_BLB17	WEN_BLB17
* WEN_BL17	WEN_BL17
* WEN_BLB16	WEN_BLB16
* WEN_BL16	WEN_BL16
* WEN_BLB15	WEN_BLB15
* WEN_BL15	WEN_BL15
* WEN_BLB14	WEN_BLB14
* WEN_BL14	WEN_BL14
* WEN_BLB13	WEN_BLB13
* WEN_BL13	WEN_BL13
* WEN_BLB12	WEN_BLB12
* WEN_BL12	WEN_BL12
* WEN_BLB11	WEN_BLB11
* WEN_BL11	WEN_BL11
* WEN_BLB10	WEN_BLB10
* WEN_BL10	WEN_BL10
* WEN_BLB9	WEN_BLB9
* WEN_BL9	WEN_BL9
* WEN_BLB8	WEN_BLB8
* WEN_BL8	WEN_BL8
* WEN_BLB7	WEN_BLB7
* WEN_BL7	WEN_BL7
* WEN_BLB6	WEN_BLB6
* WEN_BL6	WEN_BL6
* WEN_BLB5	WEN_BLB5
* WEN_BL5	WEN_BL5
* WEN_BLB4	WEN_BLB4
* WEN_BL4	WEN_BL4
* WEN_BLB3	WEN_BLB3
* WEN_BL3	WEN_BL3
* WEN_BLB2	WEN_BLB2
* WEN_BL2	WEN_BL2
* WEN_BLB1	WEN_BLB1
* WEN_BL1	WEN_BL1
* WEN_BLB0	WEN_BLB0
* WEN_BL0	WEN_BL0
* VSS	VSS
* BLB31	BLB31
* BL31	BL31
* BLB30	BLB30
* BL30	BL30
* BLB29	BLB29
* BL29	BL29
* BLB28	BLB28
* BL28	BL28
* BLB27	BLB27
* BL27	BL27
* BLB26	BLB26
* BL26	BL26
* BLB25	BLB25
* BL25	BL25
* BLB24	BLB24
* BL24	BL24
* BLB23	BLB23
* BL23	BL23
* BLB22	BLB22
* BL22	BL22
* BLB21	BLB21
* BL21	BL21
* BLB20	BLB20
* BL20	BL20
* BLB19	BLB19
* BL19	BL19
* BLB18	BLB18
* BL18	BL18
* BLB17	BLB17
* BL17	BL17
* BLB16	BLB16
* BL16	BL16
* BLB15	BLB15
* BL15	BL15
* BLB14	BLB14
* BL14	BL14
* BLB13	BLB13
* BL13	BL13
* BLB12	BLB12
* BL12	BL12
* BLB11	BLB11
* BL11	BL11
* BLB10	BLB10
* BL10	BL10
* BLB9	BLB9
* BL9	BL9
* BLB8	BLB8
* BL8	BL8
* BLB7	BLB7
* BL7	BL7
* BLB6	BLB6
* BL6	BL6
* BLB5	BLB5
* BL5	BL5
* BLB4	BLB4
* BL4	BL4
* BLB3	BLB3
* BL3	BL3
* BLB2	BLB2
* BL2	BL2
* BLB1	BLB1
* BL1	BL1
* BLB0	BLB0
* VDD	VDD
* BL0	BL0
* PRE	PRE
mxWD0.M0 N_BL0_xWD0.M0_d N_WEN_BL0_xWD0.M0_g N_VSS_xWD0.M0_s VSS_SUB NMOS_SRAM
+ L=2e-08 W=1.08e-07 NFIN=4
mxWD0.M1 N_BLB0_xWD0.M1_d N_WEN_BLB0_xWD0.M1_g N_VSS_xWD0.M1_s VSS_SUB NMOS_SRAM
+ L=2e-08 W=1.08e-07 NFIN=4
mxWD1.M0 N_BL1_xWD1.M0_d N_WEN_BL1_xWD1.M0_g N_VSS_xWD1.M0_s VSS_SUB NMOS_SRAM
+ L=2e-08 W=1.08e-07 NFIN=4
mxWD1.M1 N_BLB1_xWD1.M1_d N_WEN_BLB1_xWD1.M1_g N_VSS_xWD1.M1_s VSS_SUB NMOS_SRAM
+ L=2e-08 W=1.08e-07 NFIN=4
mxWD2.M0 N_BL2_xWD2.M0_d N_WEN_BL2_xWD2.M0_g N_VSS_xWD2.M0_s VSS_SUB NMOS_SRAM
+ L=2e-08 W=1.08e-07 NFIN=4
mxWD2.M1 N_BLB2_xWD2.M1_d N_WEN_BLB2_xWD2.M1_g N_VSS_xWD2.M1_s VSS_SUB NMOS_SRAM
+ L=2e-08 W=1.08e-07 NFIN=4
mxWD3.M0 N_BL3_xWD3.M0_d N_WEN_BL3_xWD3.M0_g N_VSS_xWD3.M0_s VSS_SUB NMOS_SRAM
+ L=2e-08 W=1.08e-07 NFIN=4
mxWD3.M1 N_BLB3_xWD3.M1_d N_WEN_BLB3_xWD3.M1_g N_VSS_xWD3.M1_s VSS_SUB NMOS_SRAM
+ L=2e-08 W=1.08e-07 NFIN=4
mxWD4.M0 N_BL4_xWD4.M0_d N_WEN_BL4_xWD4.M0_g N_VSS_xWD4.M0_s VSS_SUB NMOS_SRAM
+ L=2e-08 W=1.08e-07 NFIN=4
mxWD4.M1 N_BLB4_xWD4.M1_d N_WEN_BLB4_xWD4.M1_g N_VSS_xWD4.M1_s VSS_SUB NMOS_SRAM
+ L=2e-08 W=1.08e-07 NFIN=4
mxWD5.M0 N_BL5_xWD5.M0_d N_WEN_BL5_xWD5.M0_g N_VSS_xWD5.M0_s VSS_SUB NMOS_SRAM
+ L=2e-08 W=1.08e-07 NFIN=4
mxWD5.M1 N_BLB5_xWD5.M1_d N_WEN_BLB5_xWD5.M1_g N_VSS_xWD5.M1_s VSS_SUB NMOS_SRAM
+ L=2e-08 W=1.08e-07 NFIN=4
mxWD6.M0 N_BL6_xWD6.M0_d N_WEN_BL6_xWD6.M0_g N_VSS_xWD6.M0_s VSS_SUB NMOS_SRAM
+ L=2e-08 W=1.08e-07 NFIN=4
mxWD6.M1 N_BLB6_xWD6.M1_d N_WEN_BLB6_xWD6.M1_g N_VSS_xWD6.M1_s VSS_SUB NMOS_SRAM
+ L=2e-08 W=1.08e-07 NFIN=4
mxWD7.M0 N_BL7_xWD7.M0_d N_WEN_BL7_xWD7.M0_g N_VSS_xWD7.M0_s VSS_SUB NMOS_SRAM
+ L=2e-08 W=1.08e-07 NFIN=4
mxWD7.M1 N_BLB7_xWD7.M1_d N_WEN_BLB7_xWD7.M1_g N_VSS_xWD7.M1_s VSS_SUB NMOS_SRAM
+ L=2e-08 W=1.08e-07 NFIN=4
mxWD8.M0 N_BL8_xWD8.M0_d N_WEN_BL8_xWD8.M0_g N_VSS_xWD8.M0_s VSS_SUB NMOS_SRAM
+ L=2e-08 W=1.08e-07 NFIN=4
mxWD8.M1 N_BLB8_xWD8.M1_d N_WEN_BLB8_xWD8.M1_g N_VSS_xWD8.M1_s VSS_SUB NMOS_SRAM
+ L=2e-08 W=1.08e-07 NFIN=4
mxWD9.M0 N_BL9_xWD9.M0_d N_WEN_BL9_xWD9.M0_g N_VSS_xWD9.M0_s VSS_SUB NMOS_SRAM
+ L=2e-08 W=1.08e-07 NFIN=4
mxWD9.M1 N_BLB9_xWD9.M1_d N_WEN_BLB9_xWD9.M1_g N_VSS_xWD9.M1_s VSS_SUB NMOS_SRAM
+ L=2e-08 W=1.08e-07 NFIN=4
mxWD10.M0 N_BL10_xWD10.M0_d N_WEN_BL10_xWD10.M0_g N_VSS_xWD10.M0_s VSS_SUB
+ NMOS_SRAM L=2e-08 W=1.08e-07 NFIN=4
mxWD10.M1 N_BLB10_xWD10.M1_d N_WEN_BLB10_xWD10.M1_g N_VSS_xWD10.M1_s VSS_SUB
+ NMOS_SRAM L=2e-08 W=1.08e-07 NFIN=4
mxWD11.M0 N_BL11_xWD11.M0_d N_WEN_BL11_xWD11.M0_g N_VSS_xWD11.M0_s VSS_SUB
+ NMOS_SRAM L=2e-08 W=1.08e-07 NFIN=4
mxWD11.M1 N_BLB11_xWD11.M1_d N_WEN_BLB11_xWD11.M1_g N_VSS_xWD11.M1_s VSS_SUB
+ NMOS_SRAM L=2e-08 W=1.08e-07 NFIN=4
mxWD12.M0 N_BL12_xWD12.M0_d N_WEN_BL12_xWD12.M0_g N_VSS_xWD12.M0_s VSS_SUB
+ NMOS_SRAM L=2e-08 W=1.08e-07 NFIN=4
mxWD12.M1 N_BLB12_xWD12.M1_d N_WEN_BLB12_xWD12.M1_g N_VSS_xWD12.M1_s VSS_SUB
+ NMOS_SRAM L=2e-08 W=1.08e-07 NFIN=4
mxWD13.M0 N_BL13_xWD13.M0_d N_WEN_BL13_xWD13.M0_g N_VSS_xWD13.M0_s VSS_SUB
+ NMOS_SRAM L=2e-08 W=1.08e-07 NFIN=4
mxWD13.M1 N_BLB13_xWD13.M1_d N_WEN_BLB13_xWD13.M1_g N_VSS_xWD13.M1_s VSS_SUB
+ NMOS_SRAM L=2e-08 W=1.08e-07 NFIN=4
mxWD14.M0 N_BL14_xWD14.M0_d N_WEN_BL14_xWD14.M0_g N_VSS_xWD14.M0_s VSS_SUB
+ NMOS_SRAM L=2e-08 W=1.08e-07 NFIN=4
mxWD14.M1 N_BLB14_xWD14.M1_d N_WEN_BLB14_xWD14.M1_g N_VSS_xWD14.M1_s VSS_SUB
+ NMOS_SRAM L=2e-08 W=1.08e-07 NFIN=4
mxWD15.M0 N_BL15_xWD15.M0_d N_WEN_BL15_xWD15.M0_g N_VSS_xWD15.M0_s VSS_SUB
+ NMOS_SRAM L=2e-08 W=1.08e-07 NFIN=4
mxWD15.M1 N_BLB15_xWD15.M1_d N_WEN_BLB15_xWD15.M1_g N_VSS_xWD15.M1_s VSS_SUB
+ NMOS_SRAM L=2e-08 W=1.08e-07 NFIN=4
mxWD16.M0 N_BL16_xWD16.M0_d N_WEN_BL16_xWD16.M0_g N_VSS_xWD16.M0_s VSS_SUB
+ NMOS_SRAM L=2e-08 W=1.08e-07 NFIN=4
mxWD16.M1 N_BLB16_xWD16.M1_d N_WEN_BLB16_xWD16.M1_g N_VSS_xWD16.M1_s VSS_SUB
+ NMOS_SRAM L=2e-08 W=1.08e-07 NFIN=4
mxWD17.M0 N_BL17_xWD17.M0_d N_WEN_BL17_xWD17.M0_g N_VSS_xWD17.M0_s VSS_SUB
+ NMOS_SRAM L=2e-08 W=1.08e-07 NFIN=4
mxWD17.M1 N_BLB17_xWD17.M1_d N_WEN_BLB17_xWD17.M1_g N_VSS_xWD17.M1_s VSS_SUB
+ NMOS_SRAM L=2e-08 W=1.08e-07 NFIN=4
mxWD18.M0 N_BL18_xWD18.M0_d N_WEN_BL18_xWD18.M0_g N_VSS_xWD18.M0_s VSS_SUB
+ NMOS_SRAM L=2e-08 W=1.08e-07 NFIN=4
mxWD18.M1 N_BLB18_xWD18.M1_d N_WEN_BLB18_xWD18.M1_g N_VSS_xWD18.M1_s VSS_SUB
+ NMOS_SRAM L=2e-08 W=1.08e-07 NFIN=4
mxWD19.M0 N_BL19_xWD19.M0_d N_WEN_BL19_xWD19.M0_g N_VSS_xWD19.M0_s VSS_SUB
+ NMOS_SRAM L=2e-08 W=1.08e-07 NFIN=4
mxWD19.M1 N_BLB19_xWD19.M1_d N_WEN_BLB19_xWD19.M1_g N_VSS_xWD19.M1_s VSS_SUB
+ NMOS_SRAM L=2e-08 W=1.08e-07 NFIN=4
mxWD20.M0 N_BL20_xWD20.M0_d N_WEN_BL20_xWD20.M0_g N_VSS_xWD20.M0_s VSS_SUB
+ NMOS_SRAM L=2e-08 W=1.08e-07 NFIN=4
mxWD20.M1 N_BLB20_xWD20.M1_d N_WEN_BLB20_xWD20.M1_g N_VSS_xWD20.M1_s VSS_SUB
+ NMOS_SRAM L=2e-08 W=1.08e-07 NFIN=4
mxWD21.M0 N_BL21_xWD21.M0_d N_WEN_BL21_xWD21.M0_g N_VSS_xWD21.M0_s VSS_SUB
+ NMOS_SRAM L=2e-08 W=1.08e-07 NFIN=4
mxWD21.M1 N_BLB21_xWD21.M1_d N_WEN_BLB21_xWD21.M1_g N_VSS_xWD21.M1_s VSS_SUB
+ NMOS_SRAM L=2e-08 W=1.08e-07 NFIN=4
mxWD22.M0 N_BL22_xWD22.M0_d N_WEN_BL22_xWD22.M0_g N_VSS_xWD22.M0_s VSS_SUB
+ NMOS_SRAM L=2e-08 W=1.08e-07 NFIN=4
mxWD22.M1 N_BLB22_xWD22.M1_d N_WEN_BLB22_xWD22.M1_g N_VSS_xWD22.M1_s VSS_SUB
+ NMOS_SRAM L=2e-08 W=1.08e-07 NFIN=4
mxWD23.M0 N_BL23_xWD23.M0_d N_WEN_BL23_xWD23.M0_g N_VSS_xWD23.M0_s VSS_SUB
+ NMOS_SRAM L=2e-08 W=1.08e-07 NFIN=4
mxWD23.M1 N_BLB23_xWD23.M1_d N_WEN_BLB23_xWD23.M1_g N_VSS_xWD23.M1_s VSS_SUB
+ NMOS_SRAM L=2e-08 W=1.08e-07 NFIN=4
mxWD24.M0 N_BL24_xWD24.M0_d N_WEN_BL24_xWD24.M0_g N_VSS_xWD24.M0_s VSS_SUB
+ NMOS_SRAM L=2e-08 W=1.08e-07 NFIN=4
mxWD24.M1 N_BLB24_xWD24.M1_d N_WEN_BLB24_xWD24.M1_g N_VSS_xWD24.M1_s VSS_SUB
+ NMOS_SRAM L=2e-08 W=1.08e-07 NFIN=4
mxWD25.M0 N_BL25_xWD25.M0_d N_WEN_BL25_xWD25.M0_g N_VSS_xWD25.M0_s VSS_SUB
+ NMOS_SRAM L=2e-08 W=1.08e-07 NFIN=4
mxWD25.M1 N_BLB25_xWD25.M1_d N_WEN_BLB25_xWD25.M1_g N_VSS_xWD25.M1_s VSS_SUB
+ NMOS_SRAM L=2e-08 W=1.08e-07 NFIN=4
mxWD26.M0 N_BL26_xWD26.M0_d N_WEN_BL26_xWD26.M0_g N_VSS_xWD26.M0_s VSS_SUB
+ NMOS_SRAM L=2e-08 W=1.08e-07 NFIN=4
mxWD26.M1 N_BLB26_xWD26.M1_d N_WEN_BLB26_xWD26.M1_g N_VSS_xWD26.M1_s VSS_SUB
+ NMOS_SRAM L=2e-08 W=1.08e-07 NFIN=4
mxWD27.M0 N_BL27_xWD27.M0_d N_WEN_BL27_xWD27.M0_g N_VSS_xWD27.M0_s VSS_SUB
+ NMOS_SRAM L=2e-08 W=1.08e-07 NFIN=4
mxWD27.M1 N_BLB27_xWD27.M1_d N_WEN_BLB27_xWD27.M1_g N_VSS_xWD27.M1_s VSS_SUB
+ NMOS_SRAM L=2e-08 W=1.08e-07 NFIN=4
mxWD28.M0 N_BL28_xWD28.M0_d N_WEN_BL28_xWD28.M0_g N_VSS_xWD28.M0_s VSS_SUB
+ NMOS_SRAM L=2e-08 W=1.08e-07 NFIN=4
mxWD28.M1 N_BLB28_xWD28.M1_d N_WEN_BLB28_xWD28.M1_g N_VSS_xWD28.M1_s VSS_SUB
+ NMOS_SRAM L=2e-08 W=1.08e-07 NFIN=4
mxWD29.M0 N_BL29_xWD29.M0_d N_WEN_BL29_xWD29.M0_g N_VSS_xWD29.M0_s VSS_SUB
+ NMOS_SRAM L=2e-08 W=1.08e-07 NFIN=4
mxWD29.M1 N_BLB29_xWD29.M1_d N_WEN_BLB29_xWD29.M1_g N_VSS_xWD29.M1_s VSS_SUB
+ NMOS_SRAM L=2e-08 W=1.08e-07 NFIN=4
mxWD30.M0 N_BL30_xWD30.M0_d N_WEN_BL30_xWD30.M0_g N_VSS_xWD30.M0_s VSS_SUB
+ NMOS_SRAM L=2e-08 W=1.08e-07 NFIN=4
mxWD30.M1 N_BLB30_xWD30.M1_d N_WEN_BLB30_xWD30.M1_g N_VSS_xWD30.M1_s VSS_SUB
+ NMOS_SRAM L=2e-08 W=1.08e-07 NFIN=4
mxWD31.M0 N_BL31_xWD31.M0_d N_WEN_BL31_xWD31.M0_g N_VSS_xWD31.M0_s VSS_SUB
+ NMOS_SRAM L=2e-08 W=1.08e-07 NFIN=4
mxWD31.M1 N_BLB31_xWD31.M1_d N_WEN_BLB31_xWD31.M1_g N_VSS_xWD31.M1_s VSS_SUB
+ NMOS_SRAM L=2e-08 W=1.08e-07 NFIN=4
mxCOL0.xcell63.M1 N_XCOL0.QB63_xCOL0.xcell63.M1_d N_XCOL0.Q63_xCOL0.xcell63.M1_g
+ N_VSS_xCOL0.xcell63.M1_s VSS_SUB NMOS_SRAM L=2e-08 W=2.7e-08 NFIN=1
mxCOL0.xcell63.M3 N_XCOL0.Q63_xCOL0.xcell63.M3_d N_WL63_xCOL0.xcell63.M3_g
+ N_BL0_xCOL0.xcell63.M3_s VSS_SUB NMOS_SRAM L=2e-08 W=2.7e-08 NFIN=1
mxCOL0.xcell63.M0 N_XCOL0.QB63_xCOL0.xcell63.M0_d N_WL63_xCOL0.xcell63.M0_g
+ N_BLB0_xCOL0.xcell63.M0_s VSS_SUB NMOS_SRAM L=2e-08 W=2.7e-08 NFIN=1
mxCOL0.xcell63.M2 N_XCOL0.Q63_xCOL0.xcell63.M2_d N_XCOL0.QB63_xCOL0.xcell63.M2_g
+ N_VSS_xCOL0.xcell63.M2_s VSS_SUB NMOS_SRAM L=2e-08 W=2.7e-08 NFIN=1
mxCOL0.xcell62.M1 N_XCOL0.QB62_xCOL0.xcell62.M1_d N_XCOL0.Q62_xCOL0.xcell62.M1_g
+ N_VSS_xCOL0.xcell62.M1_s VSS_SUB NMOS_SRAM L=2e-08 W=2.7e-08 NFIN=1
mxCOL0.xcell62.M3 N_XCOL0.Q62_xCOL0.xcell62.M3_d N_WL62_xCOL0.xcell62.M3_g
+ N_BL0_xCOL0.xcell62.M3_s VSS_SUB NMOS_SRAM L=2e-08 W=2.7e-08 NFIN=1
mxCOL0.xcell62.M0 N_XCOL0.QB62_xCOL0.xcell62.M0_d N_WL62_xCOL0.xcell62.M0_g
+ N_BLB0_xCOL0.xcell62.M0_s VSS_SUB NMOS_SRAM L=2e-08 W=2.7e-08 NFIN=1
mxCOL0.xcell62.M2 N_XCOL0.Q62_xCOL0.xcell62.M2_d N_XCOL0.QB62_xCOL0.xcell62.M2_g
+ N_VSS_xCOL0.xcell62.M2_s VSS_SUB NMOS_SRAM L=2e-08 W=2.7e-08 NFIN=1
mxCOL0.xcell61.M1 N_XCOL0.QB61_xCOL0.xcell61.M1_d N_XCOL0.Q61_xCOL0.xcell61.M1_g
+ N_VSS_xCOL0.xcell61.M1_s VSS_SUB NMOS_SRAM L=2e-08 W=2.7e-08 NFIN=1
mxCOL0.xcell61.M3 N_XCOL0.Q61_xCOL0.xcell61.M3_d N_WL61_xCOL0.xcell61.M3_g
+ N_BL0_xCOL0.xcell61.M3_s VSS_SUB NMOS_SRAM L=2e-08 W=2.7e-08 NFIN=1
mxCOL0.xcell61.M0 N_XCOL0.QB61_xCOL0.xcell61.M0_d N_WL61_xCOL0.xcell61.M0_g
+ N_BLB0_xCOL0.xcell61.M0_s VSS_SUB NMOS_SRAM L=2e-08 W=2.7e-08 NFIN=1
mxCOL0.xcell61.M2 N_XCOL0.Q61_xCOL0.xcell61.M2_d N_XCOL0.QB61_xCOL0.xcell61.M2_g
+ N_VSS_xCOL0.xcell61.M2_s VSS_SUB NMOS_SRAM L=2e-08 W=2.7e-08 NFIN=1
mxCOL0.xcell60.M1 N_XCOL0.QB60_xCOL0.xcell60.M1_d N_XCOL0.Q60_xCOL0.xcell60.M1_g
+ N_VSS_xCOL0.xcell60.M1_s VSS_SUB NMOS_SRAM L=2e-08 W=2.7e-08 NFIN=1
mxCOL0.xcell60.M3 N_XCOL0.Q60_xCOL0.xcell60.M3_d N_WL60_xCOL0.xcell60.M3_g
+ N_BL0_xCOL0.xcell60.M3_s VSS_SUB NMOS_SRAM L=2e-08 W=2.7e-08 NFIN=1
mxCOL0.xcell60.M0 N_XCOL0.QB60_xCOL0.xcell60.M0_d N_WL60_xCOL0.xcell60.M0_g
+ N_BLB0_xCOL0.xcell60.M0_s VSS_SUB NMOS_SRAM L=2e-08 W=2.7e-08 NFIN=1
mxCOL0.xcell60.M2 N_XCOL0.Q60_xCOL0.xcell60.M2_d N_XCOL0.QB60_xCOL0.xcell60.M2_g
+ N_VSS_xCOL0.xcell60.M2_s VSS_SUB NMOS_SRAM L=2e-08 W=2.7e-08 NFIN=1
mxCOL0.xcell59.M1 N_XCOL0.QB59_xCOL0.xcell59.M1_d N_XCOL0.Q59_xCOL0.xcell59.M1_g
+ N_VSS_xCOL0.xcell59.M1_s VSS_SUB NMOS_SRAM L=2e-08 W=2.7e-08 NFIN=1
mxCOL0.xcell59.M3 N_XCOL0.Q59_xCOL0.xcell59.M3_d N_WL59_xCOL0.xcell59.M3_g
+ N_BL0_xCOL0.xcell59.M3_s VSS_SUB NMOS_SRAM L=2e-08 W=2.7e-08 NFIN=1
mxCOL0.xcell59.M0 N_XCOL0.QB59_xCOL0.xcell59.M0_d N_WL59_xCOL0.xcell59.M0_g
+ N_BLB0_xCOL0.xcell59.M0_s VSS_SUB NMOS_SRAM L=2e-08 W=2.7e-08 NFIN=1
mxCOL0.xcell59.M2 N_XCOL0.Q59_xCOL0.xcell59.M2_d N_XCOL0.QB59_xCOL0.xcell59.M2_g
+ N_VSS_xCOL0.xcell59.M2_s VSS_SUB NMOS_SRAM L=2e-08 W=2.7e-08 NFIN=1
mxCOL0.xcell58.M1 N_XCOL0.QB58_xCOL0.xcell58.M1_d N_XCOL0.Q58_xCOL0.xcell58.M1_g
+ N_VSS_xCOL0.xcell58.M1_s VSS_SUB NMOS_SRAM L=2e-08 W=2.7e-08 NFIN=1
mxCOL0.xcell58.M3 N_XCOL0.Q58_xCOL0.xcell58.M3_d N_WL58_xCOL0.xcell58.M3_g
+ N_BL0_xCOL0.xcell58.M3_s VSS_SUB NMOS_SRAM L=2e-08 W=2.7e-08 NFIN=1
mxCOL0.xcell58.M0 N_XCOL0.QB58_xCOL0.xcell58.M0_d N_WL58_xCOL0.xcell58.M0_g
+ N_BLB0_xCOL0.xcell58.M0_s VSS_SUB NMOS_SRAM L=2e-08 W=2.7e-08 NFIN=1
mxCOL0.xcell58.M2 N_XCOL0.Q58_xCOL0.xcell58.M2_d N_XCOL0.QB58_xCOL0.xcell58.M2_g
+ N_VSS_xCOL0.xcell58.M2_s VSS_SUB NMOS_SRAM L=2e-08 W=2.7e-08 NFIN=1
mxCOL0.xcell57.M1 N_XCOL0.QB57_xCOL0.xcell57.M1_d N_XCOL0.Q57_xCOL0.xcell57.M1_g
+ N_VSS_xCOL0.xcell57.M1_s VSS_SUB NMOS_SRAM L=2e-08 W=2.7e-08 NFIN=1
mxCOL0.xcell57.M3 N_XCOL0.Q57_xCOL0.xcell57.M3_d N_WL57_xCOL0.xcell57.M3_g
+ N_BL0_xCOL0.xcell57.M3_s VSS_SUB NMOS_SRAM L=2e-08 W=2.7e-08 NFIN=1
mxCOL0.xcell57.M0 N_XCOL0.QB57_xCOL0.xcell57.M0_d N_WL57_xCOL0.xcell57.M0_g
+ N_BLB0_xCOL0.xcell57.M0_s VSS_SUB NMOS_SRAM L=2e-08 W=2.7e-08 NFIN=1
mxCOL0.xcell57.M2 N_XCOL0.Q57_xCOL0.xcell57.M2_d N_XCOL0.QB57_xCOL0.xcell57.M2_g
+ N_VSS_xCOL0.xcell57.M2_s VSS_SUB NMOS_SRAM L=2e-08 W=2.7e-08 NFIN=1
mxCOL0.xcell56.M1 N_XCOL0.QB56_xCOL0.xcell56.M1_d N_XCOL0.Q56_xCOL0.xcell56.M1_g
+ N_VSS_xCOL0.xcell56.M1_s VSS_SUB NMOS_SRAM L=2e-08 W=2.7e-08 NFIN=1
mxCOL0.xcell56.M3 N_XCOL0.Q56_xCOL0.xcell56.M3_d N_WL56_xCOL0.xcell56.M3_g
+ N_BL0_xCOL0.xcell56.M3_s VSS_SUB NMOS_SRAM L=2e-08 W=2.7e-08 NFIN=1
mxCOL0.xcell56.M0 N_XCOL0.QB56_xCOL0.xcell56.M0_d N_WL56_xCOL0.xcell56.M0_g
+ N_BLB0_xCOL0.xcell56.M0_s VSS_SUB NMOS_SRAM L=2e-08 W=2.7e-08 NFIN=1
mxCOL0.xcell56.M2 N_XCOL0.Q56_xCOL0.xcell56.M2_d N_XCOL0.QB56_xCOL0.xcell56.M2_g
+ N_VSS_xCOL0.xcell56.M2_s VSS_SUB NMOS_SRAM L=2e-08 W=2.7e-08 NFIN=1
mxCOL0.xcell55.M1 N_XCOL0.QB55_xCOL0.xcell55.M1_d N_XCOL0.Q55_xCOL0.xcell55.M1_g
+ N_VSS_xCOL0.xcell55.M1_s VSS_SUB NMOS_SRAM L=2e-08 W=2.7e-08 NFIN=1
mxCOL0.xcell55.M3 N_XCOL0.Q55_xCOL0.xcell55.M3_d N_WL55_xCOL0.xcell55.M3_g
+ N_BL0_xCOL0.xcell55.M3_s VSS_SUB NMOS_SRAM L=2e-08 W=2.7e-08 NFIN=1
mxCOL0.xcell55.M0 N_XCOL0.QB55_xCOL0.xcell55.M0_d N_WL55_xCOL0.xcell55.M0_g
+ N_BLB0_xCOL0.xcell55.M0_s VSS_SUB NMOS_SRAM L=2e-08 W=2.7e-08 NFIN=1
mxCOL0.xcell55.M2 N_XCOL0.Q55_xCOL0.xcell55.M2_d N_XCOL0.QB55_xCOL0.xcell55.M2_g
+ N_VSS_xCOL0.xcell55.M2_s VSS_SUB NMOS_SRAM L=2e-08 W=2.7e-08 NFIN=1
mxCOL0.xcell54.M1 N_XCOL0.QB54_xCOL0.xcell54.M1_d N_XCOL0.Q54_xCOL0.xcell54.M1_g
+ N_VSS_xCOL0.xcell54.M1_s VSS_SUB NMOS_SRAM L=2e-08 W=2.7e-08 NFIN=1
mxCOL0.xcell54.M3 N_XCOL0.Q54_xCOL0.xcell54.M3_d N_WL54_xCOL0.xcell54.M3_g
+ N_BL0_xCOL0.xcell54.M3_s VSS_SUB NMOS_SRAM L=2e-08 W=2.7e-08 NFIN=1
mxCOL0.xcell54.M0 N_XCOL0.QB54_xCOL0.xcell54.M0_d N_WL54_xCOL0.xcell54.M0_g
+ N_BLB0_xCOL0.xcell54.M0_s VSS_SUB NMOS_SRAM L=2e-08 W=2.7e-08 NFIN=1
mxCOL0.xcell54.M2 N_XCOL0.Q54_xCOL0.xcell54.M2_d N_XCOL0.QB54_xCOL0.xcell54.M2_g
+ N_VSS_xCOL0.xcell54.M2_s VSS_SUB NMOS_SRAM L=2e-08 W=2.7e-08 NFIN=1
mxCOL0.xcell53.M1 N_XCOL0.QB53_xCOL0.xcell53.M1_d N_XCOL0.Q53_xCOL0.xcell53.M1_g
+ N_VSS_xCOL0.xcell53.M1_s VSS_SUB NMOS_SRAM L=2e-08 W=2.7e-08 NFIN=1
mxCOL0.xcell53.M3 N_XCOL0.Q53_xCOL0.xcell53.M3_d N_WL53_xCOL0.xcell53.M3_g
+ N_BL0_xCOL0.xcell53.M3_s VSS_SUB NMOS_SRAM L=2e-08 W=2.7e-08 NFIN=1
mxCOL0.xcell53.M0 N_XCOL0.QB53_xCOL0.xcell53.M0_d N_WL53_xCOL0.xcell53.M0_g
+ N_BLB0_xCOL0.xcell53.M0_s VSS_SUB NMOS_SRAM L=2e-08 W=2.7e-08 NFIN=1
mxCOL0.xcell53.M2 N_XCOL0.Q53_xCOL0.xcell53.M2_d N_XCOL0.QB53_xCOL0.xcell53.M2_g
+ N_VSS_xCOL0.xcell53.M2_s VSS_SUB NMOS_SRAM L=2e-08 W=2.7e-08 NFIN=1
mxCOL0.xcell52.M1 N_XCOL0.QB52_xCOL0.xcell52.M1_d N_XCOL0.Q52_xCOL0.xcell52.M1_g
+ N_VSS_xCOL0.xcell52.M1_s VSS_SUB NMOS_SRAM L=2e-08 W=2.7e-08 NFIN=1
mxCOL0.xcell52.M3 N_XCOL0.Q52_xCOL0.xcell52.M3_d N_WL52_xCOL0.xcell52.M3_g
+ N_BL0_xCOL0.xcell52.M3_s VSS_SUB NMOS_SRAM L=2e-08 W=2.7e-08 NFIN=1
mxCOL0.xcell52.M0 N_XCOL0.QB52_xCOL0.xcell52.M0_d N_WL52_xCOL0.xcell52.M0_g
+ N_BLB0_xCOL0.xcell52.M0_s VSS_SUB NMOS_SRAM L=2e-08 W=2.7e-08 NFIN=1
mxCOL0.xcell52.M2 N_XCOL0.Q52_xCOL0.xcell52.M2_d N_XCOL0.QB52_xCOL0.xcell52.M2_g
+ N_VSS_xCOL0.xcell52.M2_s VSS_SUB NMOS_SRAM L=2e-08 W=2.7e-08 NFIN=1
mxCOL0.xcell51.M1 N_XCOL0.QB51_xCOL0.xcell51.M1_d N_XCOL0.Q51_xCOL0.xcell51.M1_g
+ N_VSS_xCOL0.xcell51.M1_s VSS_SUB NMOS_SRAM L=2e-08 W=2.7e-08 NFIN=1
mxCOL0.xcell51.M3 N_XCOL0.Q51_xCOL0.xcell51.M3_d N_WL51_xCOL0.xcell51.M3_g
+ N_BL0_xCOL0.xcell51.M3_s VSS_SUB NMOS_SRAM L=2e-08 W=2.7e-08 NFIN=1
mxCOL0.xcell51.M0 N_XCOL0.QB51_xCOL0.xcell51.M0_d N_WL51_xCOL0.xcell51.M0_g
+ N_BLB0_xCOL0.xcell51.M0_s VSS_SUB NMOS_SRAM L=2e-08 W=2.7e-08 NFIN=1
mxCOL0.xcell51.M2 N_XCOL0.Q51_xCOL0.xcell51.M2_d N_XCOL0.QB51_xCOL0.xcell51.M2_g
+ N_VSS_xCOL0.xcell51.M2_s VSS_SUB NMOS_SRAM L=2e-08 W=2.7e-08 NFIN=1
mxCOL0.xcell50.M1 N_XCOL0.QB50_xCOL0.xcell50.M1_d N_XCOL0.Q50_xCOL0.xcell50.M1_g
+ N_VSS_xCOL0.xcell50.M1_s VSS_SUB NMOS_SRAM L=2e-08 W=2.7e-08 NFIN=1
mxCOL0.xcell50.M3 N_XCOL0.Q50_xCOL0.xcell50.M3_d N_WL50_xCOL0.xcell50.M3_g
+ N_BL0_xCOL0.xcell50.M3_s VSS_SUB NMOS_SRAM L=2e-08 W=2.7e-08 NFIN=1
mxCOL0.xcell50.M0 N_XCOL0.QB50_xCOL0.xcell50.M0_d N_WL50_xCOL0.xcell50.M0_g
+ N_BLB0_xCOL0.xcell50.M0_s VSS_SUB NMOS_SRAM L=2e-08 W=2.7e-08 NFIN=1
mxCOL0.xcell50.M2 N_XCOL0.Q50_xCOL0.xcell50.M2_d N_XCOL0.QB50_xCOL0.xcell50.M2_g
+ N_VSS_xCOL0.xcell50.M2_s VSS_SUB NMOS_SRAM L=2e-08 W=2.7e-08 NFIN=1
mxCOL0.xcell49.M1 N_XCOL0.QB49_xCOL0.xcell49.M1_d N_XCOL0.Q49_xCOL0.xcell49.M1_g
+ N_VSS_xCOL0.xcell49.M1_s VSS_SUB NMOS_SRAM L=2e-08 W=2.7e-08 NFIN=1
mxCOL0.xcell49.M3 N_XCOL0.Q49_xCOL0.xcell49.M3_d N_WL49_xCOL0.xcell49.M3_g
+ N_BL0_xCOL0.xcell49.M3_s VSS_SUB NMOS_SRAM L=2e-08 W=2.7e-08 NFIN=1
mxCOL0.xcell49.M0 N_XCOL0.QB49_xCOL0.xcell49.M0_d N_WL49_xCOL0.xcell49.M0_g
+ N_BLB0_xCOL0.xcell49.M0_s VSS_SUB NMOS_SRAM L=2e-08 W=2.7e-08 NFIN=1
mxCOL0.xcell49.M2 N_XCOL0.Q49_xCOL0.xcell49.M2_d N_XCOL0.QB49_xCOL0.xcell49.M2_g
+ N_VSS_xCOL0.xcell49.M2_s VSS_SUB NMOS_SRAM L=2e-08 W=2.7e-08 NFIN=1
mxCOL0.xcell48.M1 N_XCOL0.QB48_xCOL0.xcell48.M1_d N_XCOL0.Q48_xCOL0.xcell48.M1_g
+ N_VSS_xCOL0.xcell48.M1_s VSS_SUB NMOS_SRAM L=2e-08 W=2.7e-08 NFIN=1
mxCOL0.xcell48.M3 N_XCOL0.Q48_xCOL0.xcell48.M3_d N_WL48_xCOL0.xcell48.M3_g
+ N_BL0_xCOL0.xcell48.M3_s VSS_SUB NMOS_SRAM L=2e-08 W=2.7e-08 NFIN=1
mxCOL0.xcell48.M0 N_XCOL0.QB48_xCOL0.xcell48.M0_d N_WL48_xCOL0.xcell48.M0_g
+ N_BLB0_xCOL0.xcell48.M0_s VSS_SUB NMOS_SRAM L=2e-08 W=2.7e-08 NFIN=1
mxCOL0.xcell48.M2 N_XCOL0.Q48_xCOL0.xcell48.M2_d N_XCOL0.QB48_xCOL0.xcell48.M2_g
+ N_VSS_xCOL0.xcell48.M2_s VSS_SUB NMOS_SRAM L=2e-08 W=2.7e-08 NFIN=1
mxCOL0.xcell47.M1 N_XCOL0.QB47_xCOL0.xcell47.M1_d N_XCOL0.Q47_xCOL0.xcell47.M1_g
+ N_VSS_xCOL0.xcell47.M1_s VSS_SUB NMOS_SRAM L=2e-08 W=2.7e-08 NFIN=1
mxCOL0.xcell47.M3 N_XCOL0.Q47_xCOL0.xcell47.M3_d N_WL47_xCOL0.xcell47.M3_g
+ N_BL0_xCOL0.xcell47.M3_s VSS_SUB NMOS_SRAM L=2e-08 W=2.7e-08 NFIN=1
mxCOL0.xcell47.M0 N_XCOL0.QB47_xCOL0.xcell47.M0_d N_WL47_xCOL0.xcell47.M0_g
+ N_BLB0_xCOL0.xcell47.M0_s VSS_SUB NMOS_SRAM L=2e-08 W=2.7e-08 NFIN=1
mxCOL0.xcell47.M2 N_XCOL0.Q47_xCOL0.xcell47.M2_d N_XCOL0.QB47_xCOL0.xcell47.M2_g
+ N_VSS_xCOL0.xcell47.M2_s VSS_SUB NMOS_SRAM L=2e-08 W=2.7e-08 NFIN=1
mxCOL0.xcell46.M1 N_XCOL0.QB46_xCOL0.xcell46.M1_d N_XCOL0.Q46_xCOL0.xcell46.M1_g
+ N_VSS_xCOL0.xcell46.M1_s VSS_SUB NMOS_SRAM L=2e-08 W=2.7e-08 NFIN=1
mxCOL0.xcell46.M3 N_XCOL0.Q46_xCOL0.xcell46.M3_d N_WL46_xCOL0.xcell46.M3_g
+ N_BL0_xCOL0.xcell46.M3_s VSS_SUB NMOS_SRAM L=2e-08 W=2.7e-08 NFIN=1
mxCOL0.xcell46.M0 N_XCOL0.QB46_xCOL0.xcell46.M0_d N_WL46_xCOL0.xcell46.M0_g
+ N_BLB0_xCOL0.xcell46.M0_s VSS_SUB NMOS_SRAM L=2e-08 W=2.7e-08 NFIN=1
mxCOL0.xcell46.M2 N_XCOL0.Q46_xCOL0.xcell46.M2_d N_XCOL0.QB46_xCOL0.xcell46.M2_g
+ N_VSS_xCOL0.xcell46.M2_s VSS_SUB NMOS_SRAM L=2e-08 W=2.7e-08 NFIN=1
mxCOL0.xcell45.M1 N_XCOL0.QB45_xCOL0.xcell45.M1_d N_XCOL0.Q45_xCOL0.xcell45.M1_g
+ N_VSS_xCOL0.xcell45.M1_s VSS_SUB NMOS_SRAM L=2e-08 W=2.7e-08 NFIN=1
mxCOL0.xcell45.M3 N_XCOL0.Q45_xCOL0.xcell45.M3_d N_WL45_xCOL0.xcell45.M3_g
+ N_BL0_xCOL0.xcell45.M3_s VSS_SUB NMOS_SRAM L=2e-08 W=2.7e-08 NFIN=1
mxCOL0.xcell45.M0 N_XCOL0.QB45_xCOL0.xcell45.M0_d N_WL45_xCOL0.xcell45.M0_g
+ N_BLB0_xCOL0.xcell45.M0_s VSS_SUB NMOS_SRAM L=2e-08 W=2.7e-08 NFIN=1
mxCOL0.xcell45.M2 N_XCOL0.Q45_xCOL0.xcell45.M2_d N_XCOL0.QB45_xCOL0.xcell45.M2_g
+ N_VSS_xCOL0.xcell45.M2_s VSS_SUB NMOS_SRAM L=2e-08 W=2.7e-08 NFIN=1
mxCOL0.xcell44.M1 N_XCOL0.QB44_xCOL0.xcell44.M1_d N_XCOL0.Q44_xCOL0.xcell44.M1_g
+ N_VSS_xCOL0.xcell44.M1_s VSS_SUB NMOS_SRAM L=2e-08 W=2.7e-08 NFIN=1
mxCOL0.xcell44.M3 N_XCOL0.Q44_xCOL0.xcell44.M3_d N_WL44_xCOL0.xcell44.M3_g
+ N_BL0_xCOL0.xcell44.M3_s VSS_SUB NMOS_SRAM L=2e-08 W=2.7e-08 NFIN=1
mxCOL0.xcell44.M0 N_XCOL0.QB44_xCOL0.xcell44.M0_d N_WL44_xCOL0.xcell44.M0_g
+ N_BLB0_xCOL0.xcell44.M0_s VSS_SUB NMOS_SRAM L=2e-08 W=2.7e-08 NFIN=1
mxCOL0.xcell44.M2 N_XCOL0.Q44_xCOL0.xcell44.M2_d N_XCOL0.QB44_xCOL0.xcell44.M2_g
+ N_VSS_xCOL0.xcell44.M2_s VSS_SUB NMOS_SRAM L=2e-08 W=2.7e-08 NFIN=1
mxCOL0.xcell43.M1 N_XCOL0.QB43_xCOL0.xcell43.M1_d N_XCOL0.Q43_xCOL0.xcell43.M1_g
+ N_VSS_xCOL0.xcell43.M1_s VSS_SUB NMOS_SRAM L=2e-08 W=2.7e-08 NFIN=1
mxCOL0.xcell43.M3 N_XCOL0.Q43_xCOL0.xcell43.M3_d N_WL43_xCOL0.xcell43.M3_g
+ N_BL0_xCOL0.xcell43.M3_s VSS_SUB NMOS_SRAM L=2e-08 W=2.7e-08 NFIN=1
mxCOL0.xcell43.M0 N_XCOL0.QB43_xCOL0.xcell43.M0_d N_WL43_xCOL0.xcell43.M0_g
+ N_BLB0_xCOL0.xcell43.M0_s VSS_SUB NMOS_SRAM L=2e-08 W=2.7e-08 NFIN=1
mxCOL0.xcell43.M2 N_XCOL0.Q43_xCOL0.xcell43.M2_d N_XCOL0.QB43_xCOL0.xcell43.M2_g
+ N_VSS_xCOL0.xcell43.M2_s VSS_SUB NMOS_SRAM L=2e-08 W=2.7e-08 NFIN=1
mxCOL0.xcell42.M1 N_XCOL0.QB42_xCOL0.xcell42.M1_d N_XCOL0.Q42_xCOL0.xcell42.M1_g
+ N_VSS_xCOL0.xcell42.M1_s VSS_SUB NMOS_SRAM L=2e-08 W=2.7e-08 NFIN=1
mxCOL0.xcell42.M3 N_XCOL0.Q42_xCOL0.xcell42.M3_d N_WL42_xCOL0.xcell42.M3_g
+ N_BL0_xCOL0.xcell42.M3_s VSS_SUB NMOS_SRAM L=2e-08 W=2.7e-08 NFIN=1
mxCOL0.xcell42.M0 N_XCOL0.QB42_xCOL0.xcell42.M0_d N_WL42_xCOL0.xcell42.M0_g
+ N_BLB0_xCOL0.xcell42.M0_s VSS_SUB NMOS_SRAM L=2e-08 W=2.7e-08 NFIN=1
mxCOL0.xcell42.M2 N_XCOL0.Q42_xCOL0.xcell42.M2_d N_XCOL0.QB42_xCOL0.xcell42.M2_g
+ N_VSS_xCOL0.xcell42.M2_s VSS_SUB NMOS_SRAM L=2e-08 W=2.7e-08 NFIN=1
mxCOL0.xcell41.M1 N_XCOL0.QB41_xCOL0.xcell41.M1_d N_XCOL0.Q41_xCOL0.xcell41.M1_g
+ N_VSS_xCOL0.xcell41.M1_s VSS_SUB NMOS_SRAM L=2e-08 W=2.7e-08 NFIN=1
mxCOL0.xcell41.M3 N_XCOL0.Q41_xCOL0.xcell41.M3_d N_WL41_xCOL0.xcell41.M3_g
+ N_BL0_xCOL0.xcell41.M3_s VSS_SUB NMOS_SRAM L=2e-08 W=2.7e-08 NFIN=1
mxCOL0.xcell41.M0 N_XCOL0.QB41_xCOL0.xcell41.M0_d N_WL41_xCOL0.xcell41.M0_g
+ N_BLB0_xCOL0.xcell41.M0_s VSS_SUB NMOS_SRAM L=2e-08 W=2.7e-08 NFIN=1
mxCOL0.xcell41.M2 N_XCOL0.Q41_xCOL0.xcell41.M2_d N_XCOL0.QB41_xCOL0.xcell41.M2_g
+ N_VSS_xCOL0.xcell41.M2_s VSS_SUB NMOS_SRAM L=2e-08 W=2.7e-08 NFIN=1
mxCOL0.xcell40.M1 N_XCOL0.QB40_xCOL0.xcell40.M1_d N_XCOL0.Q40_xCOL0.xcell40.M1_g
+ N_VSS_xCOL0.xcell40.M1_s VSS_SUB NMOS_SRAM L=2e-08 W=2.7e-08 NFIN=1
mxCOL0.xcell40.M3 N_XCOL0.Q40_xCOL0.xcell40.M3_d N_WL40_xCOL0.xcell40.M3_g
+ N_BL0_xCOL0.xcell40.M3_s VSS_SUB NMOS_SRAM L=2e-08 W=2.7e-08 NFIN=1
mxCOL0.xcell40.M0 N_XCOL0.QB40_xCOL0.xcell40.M0_d N_WL40_xCOL0.xcell40.M0_g
+ N_BLB0_xCOL0.xcell40.M0_s VSS_SUB NMOS_SRAM L=2e-08 W=2.7e-08 NFIN=1
mxCOL0.xcell40.M2 N_XCOL0.Q40_xCOL0.xcell40.M2_d N_XCOL0.QB40_xCOL0.xcell40.M2_g
+ N_VSS_xCOL0.xcell40.M2_s VSS_SUB NMOS_SRAM L=2e-08 W=2.7e-08 NFIN=1
mxCOL0.xcell39.M1 N_XCOL0.QB39_xCOL0.xcell39.M1_d N_XCOL0.Q39_xCOL0.xcell39.M1_g
+ N_VSS_xCOL0.xcell39.M1_s VSS_SUB NMOS_SRAM L=2e-08 W=2.7e-08 NFIN=1
mxCOL0.xcell39.M3 N_XCOL0.Q39_xCOL0.xcell39.M3_d N_WL39_xCOL0.xcell39.M3_g
+ N_BL0_xCOL0.xcell39.M3_s VSS_SUB NMOS_SRAM L=2e-08 W=2.7e-08 NFIN=1
mxCOL0.xcell39.M0 N_XCOL0.QB39_xCOL0.xcell39.M0_d N_WL39_xCOL0.xcell39.M0_g
+ N_BLB0_xCOL0.xcell39.M0_s VSS_SUB NMOS_SRAM L=2e-08 W=2.7e-08 NFIN=1
mxCOL0.xcell39.M2 N_XCOL0.Q39_xCOL0.xcell39.M2_d N_XCOL0.QB39_xCOL0.xcell39.M2_g
+ N_VSS_xCOL0.xcell39.M2_s VSS_SUB NMOS_SRAM L=2e-08 W=2.7e-08 NFIN=1
mxCOL0.xcell38.M1 N_XCOL0.QB38_xCOL0.xcell38.M1_d N_XCOL0.Q38_xCOL0.xcell38.M1_g
+ N_VSS_xCOL0.xcell38.M1_s VSS_SUB NMOS_SRAM L=2e-08 W=2.7e-08 NFIN=1
mxCOL0.xcell38.M3 N_XCOL0.Q38_xCOL0.xcell38.M3_d N_WL38_xCOL0.xcell38.M3_g
+ N_BL0_xCOL0.xcell38.M3_s VSS_SUB NMOS_SRAM L=2e-08 W=2.7e-08 NFIN=1
mxCOL0.xcell38.M0 N_XCOL0.QB38_xCOL0.xcell38.M0_d N_WL38_xCOL0.xcell38.M0_g
+ N_BLB0_xCOL0.xcell38.M0_s VSS_SUB NMOS_SRAM L=2e-08 W=2.7e-08 NFIN=1
mxCOL0.xcell38.M2 N_XCOL0.Q38_xCOL0.xcell38.M2_d N_XCOL0.QB38_xCOL0.xcell38.M2_g
+ N_VSS_xCOL0.xcell38.M2_s VSS_SUB NMOS_SRAM L=2e-08 W=2.7e-08 NFIN=1
mxCOL0.xcell37.M1 N_XCOL0.QB37_xCOL0.xcell37.M1_d N_XCOL0.Q37_xCOL0.xcell37.M1_g
+ N_VSS_xCOL0.xcell37.M1_s VSS_SUB NMOS_SRAM L=2e-08 W=2.7e-08 NFIN=1
mxCOL0.xcell37.M3 N_XCOL0.Q37_xCOL0.xcell37.M3_d N_WL37_xCOL0.xcell37.M3_g
+ N_BL0_xCOL0.xcell37.M3_s VSS_SUB NMOS_SRAM L=2e-08 W=2.7e-08 NFIN=1
mxCOL0.xcell37.M0 N_XCOL0.QB37_xCOL0.xcell37.M0_d N_WL37_xCOL0.xcell37.M0_g
+ N_BLB0_xCOL0.xcell37.M0_s VSS_SUB NMOS_SRAM L=2e-08 W=2.7e-08 NFIN=1
mxCOL0.xcell37.M2 N_XCOL0.Q37_xCOL0.xcell37.M2_d N_XCOL0.QB37_xCOL0.xcell37.M2_g
+ N_VSS_xCOL0.xcell37.M2_s VSS_SUB NMOS_SRAM L=2e-08 W=2.7e-08 NFIN=1
mxCOL0.xcell36.M1 N_XCOL0.QB36_xCOL0.xcell36.M1_d N_XCOL0.Q36_xCOL0.xcell36.M1_g
+ N_VSS_xCOL0.xcell36.M1_s VSS_SUB NMOS_SRAM L=2e-08 W=2.7e-08 NFIN=1
mxCOL0.xcell36.M3 N_XCOL0.Q36_xCOL0.xcell36.M3_d N_WL36_xCOL0.xcell36.M3_g
+ N_BL0_xCOL0.xcell36.M3_s VSS_SUB NMOS_SRAM L=2e-08 W=2.7e-08 NFIN=1
mxCOL0.xcell36.M0 N_XCOL0.QB36_xCOL0.xcell36.M0_d N_WL36_xCOL0.xcell36.M0_g
+ N_BLB0_xCOL0.xcell36.M0_s VSS_SUB NMOS_SRAM L=2e-08 W=2.7e-08 NFIN=1
mxCOL0.xcell36.M2 N_XCOL0.Q36_xCOL0.xcell36.M2_d N_XCOL0.QB36_xCOL0.xcell36.M2_g
+ N_VSS_xCOL0.xcell36.M2_s VSS_SUB NMOS_SRAM L=2e-08 W=2.7e-08 NFIN=1
mxCOL0.xcell35.M1 N_XCOL0.QB35_xCOL0.xcell35.M1_d N_XCOL0.Q35_xCOL0.xcell35.M1_g
+ N_VSS_xCOL0.xcell35.M1_s VSS_SUB NMOS_SRAM L=2e-08 W=2.7e-08 NFIN=1
mxCOL0.xcell35.M3 N_XCOL0.Q35_xCOL0.xcell35.M3_d N_WL35_xCOL0.xcell35.M3_g
+ N_BL0_xCOL0.xcell35.M3_s VSS_SUB NMOS_SRAM L=2e-08 W=2.7e-08 NFIN=1
mxCOL0.xcell35.M0 N_XCOL0.QB35_xCOL0.xcell35.M0_d N_WL35_xCOL0.xcell35.M0_g
+ N_BLB0_xCOL0.xcell35.M0_s VSS_SUB NMOS_SRAM L=2e-08 W=2.7e-08 NFIN=1
mxCOL0.xcell35.M2 N_XCOL0.Q35_xCOL0.xcell35.M2_d N_XCOL0.QB35_xCOL0.xcell35.M2_g
+ N_VSS_xCOL0.xcell35.M2_s VSS_SUB NMOS_SRAM L=2e-08 W=2.7e-08 NFIN=1
mxCOL0.xcell34.M1 N_XCOL0.QB34_xCOL0.xcell34.M1_d N_XCOL0.Q34_xCOL0.xcell34.M1_g
+ N_VSS_xCOL0.xcell34.M1_s VSS_SUB NMOS_SRAM L=2e-08 W=2.7e-08 NFIN=1
mxCOL0.xcell34.M3 N_XCOL0.Q34_xCOL0.xcell34.M3_d N_WL34_xCOL0.xcell34.M3_g
+ N_BL0_xCOL0.xcell34.M3_s VSS_SUB NMOS_SRAM L=2e-08 W=2.7e-08 NFIN=1
mxCOL0.xcell34.M0 N_XCOL0.QB34_xCOL0.xcell34.M0_d N_WL34_xCOL0.xcell34.M0_g
+ N_BLB0_xCOL0.xcell34.M0_s VSS_SUB NMOS_SRAM L=2e-08 W=2.7e-08 NFIN=1
mxCOL0.xcell34.M2 N_XCOL0.Q34_xCOL0.xcell34.M2_d N_XCOL0.QB34_xCOL0.xcell34.M2_g
+ N_VSS_xCOL0.xcell34.M2_s VSS_SUB NMOS_SRAM L=2e-08 W=2.7e-08 NFIN=1
mxCOL0.xcell33.M1 N_XCOL0.QB33_xCOL0.xcell33.M1_d N_XCOL0.Q33_xCOL0.xcell33.M1_g
+ N_VSS_xCOL0.xcell33.M1_s VSS_SUB NMOS_SRAM L=2e-08 W=2.7e-08 NFIN=1
mxCOL0.xcell33.M3 N_XCOL0.Q33_xCOL0.xcell33.M3_d N_WL33_xCOL0.xcell33.M3_g
+ N_BL0_xCOL0.xcell33.M3_s VSS_SUB NMOS_SRAM L=2e-08 W=2.7e-08 NFIN=1
mxCOL0.xcell33.M0 N_XCOL0.QB33_xCOL0.xcell33.M0_d N_WL33_xCOL0.xcell33.M0_g
+ N_BLB0_xCOL0.xcell33.M0_s VSS_SUB NMOS_SRAM L=2e-08 W=2.7e-08 NFIN=1
mxCOL0.xcell33.M2 N_XCOL0.Q33_xCOL0.xcell33.M2_d N_XCOL0.QB33_xCOL0.xcell33.M2_g
+ N_VSS_xCOL0.xcell33.M2_s VSS_SUB NMOS_SRAM L=2e-08 W=2.7e-08 NFIN=1